data_genice_CS2
#
#Data source:
#[ice 16] Falenty, A., Hansen, T. C. & Kuhs, W. F. Formation and properties of ice XVI obtained by emptying a type sII clathrate hydrate. Nature 516, 231-233 (2014).
#[C15] Dutour Sikirić, Mathieu, Olaf Delgado-Friedrichs, and Michel Deza. “Space Fullerenes: a Computer Search for New Frank-Kasper Structures” Acta Crystallographica Section A Foundations of Crystallography 66.Pt 5 (2010): 602–615.
#[sII] Jeffrey, G A. “Hydrate Inclusion Compounds.” Inclusion Compounds 1 (1984): 135–190.
#[CS2] Kosyakov, Viktor I, and T M Polyanskaya. “Using Structural Data for Estimating the Stability of Water Networks in Clathrate and Semiclathrate Hydrates.” Journal of Structural Chemistry 40.2 (1999): 239–245.
#[MTN] http://www.iza-structure.org/databases/
#
#Command line: ./genice.x CS2 --guest 12=g12 --rep 1 1 2 --format cif2
_cell_length_a                17.120977156117426
_cell_length_b                17.120977156117426
_cell_length_c                34.24195431223485
_cell_angle_alpha             90.0
_cell_angle_beta              90.0
_cell_angle_gamma             90.0

_symmetry_cell_setting        'orthorhombic'
_symmetry_space_group_name_H-M   'P 1 '

loop_
_atom_site_label
_atom_site_fract_x
_atom_site_fract_y
_atom_site_fract_z
_atom_site_type_symbol
    O0    0.5654    0.8672    0.2856     O
    H1    0.5882    0.8891    0.2619     H
    H2    0.6058    0.8692    0.3040     H
    O3    0.6824    0.3748    0.0885     O
    H4    0.6943    0.3214    0.0946     H
    H5    0.6605    0.3954    0.1120     H
    O6    0.3136    0.9329    0.0611     O
    H7    0.3035    0.9445    0.0345     H
    H8    0.3543    0.8939    0.0604     H
    O9    0.9335    0.6286    0.2185     O
   H10    0.9795    0.6076    0.2068     H
   H11    0.8957    0.6295    0.1978     H
   O12    0.9318    0.9267    0.0645     O
   H13    0.9444    0.9403    0.0908     H
   H14    0.9114    0.9739    0.0534     H
   O15    0.3670    0.6838    0.0941     O
   H16    0.3679    0.6452    0.0739     H
   H17    0.3887    0.7295    0.0822     H
   O18    0.3223    0.6174    0.2138     O
   H19    0.2746    0.6433    0.2060     H
   H20    0.3377    0.6433    0.2370     H
   O21    0.8242    0.4314    0.0619     O
   H22    0.7773    0.4114    0.0724     H
   H23    0.8111    0.4451    0.0352     H
   O24    0.8741    0.3723    0.4366     O
   H25    0.9064    0.3414    0.4537     H
   H26    0.8433    0.4034    0.4538     H
   O27    0.3154    0.6321    0.4094     O
   H28    0.3386    0.6094    0.3862     H
   H29    0.3554    0.6296    0.4284     H
   O30    0.4348    0.1250    0.4092     O
   H31    0.4122    0.1450    0.3858     H
   H32    0.4465    0.0714    0.4033     H
   O33    0.2143    0.2190    0.3592     O
   H34    0.2669    0.2065    0.3527     H
   H35    0.1833    0.1858    0.3427     H
   O36    0.6333    0.4296    0.4663     O
   H37    0.6069    0.4147    0.4891     H
   H38    0.6062    0.4765    0.4576     H
   O39    0.6176    0.4311    0.1558     O
   H40    0.6190    0.3934    0.1765     H
   H41    0.6398    0.4772    0.1670     H
   O42    0.1316    0.8183    0.4061     O
   H43    0.1303    0.8563    0.4266     H
   H44    0.1102    0.7720    0.4178     H
   O45    0.2868    0.7870    0.3890     O
   H46    0.2334    0.7959    0.3957     H
   H47    0.2961    0.7336    0.3961     H
   O48    0.4308    0.4332    0.0633     O
   H49    0.4431    0.4444    0.0903     H
   H50    0.3926    0.3932    0.0646     H
   O51    0.2144    0.0356    0.2644     O
   H52    0.2676    0.0446    0.2716     H
   H53    0.2052   -0.0180    0.2711     H
   O54    0.6226    0.8218    0.4660     O
   H55    0.6439    0.7736    0.4556     H
   H56    0.5705    0.8094    0.4726     H
   O57    0.1834    0.8788    0.2831     O
   H58    0.1426    0.8781    0.3024     H
   H59    0.1600    0.8569    0.2604     H
   O60    0.1826    0.0648    0.1882     O
   H61    0.1423    0.1044    0.1887     H
   H62    0.1936    0.0547    0.2148     H
   O63    0.4660    0.4651    0.1397     O
   H64    0.5184    0.4562    0.1463     H
   H65    0.4565    0.5193    0.1470     H
   O66    0.9329    0.1247    0.1617     O
   H67    0.9451    0.0720    0.1553     H
   H68    0.9108    0.1459    0.1381     H
   O69    0.8727    0.8740    0.1853     O
   H70    0.9046    0.8426    0.2021     H
   H71    0.8416    0.9046    0.2028     H
   O72    0.1272    0.4348    0.2166     O
   H73    0.1808    0.4453    0.2226     H
   H74    0.1292    0.3942    0.1974     H
   O75    0.1782    0.8744    0.0913     O
   H76    0.1907    0.8207    0.0978     H
   H77    0.2247    0.8946    0.0805     H
   O78    0.4341    0.9330    0.3148     O
   H79    0.3952    0.8927    0.3140     H
   H80    0.4799    0.9090    0.3045     H
   O81    0.1207    0.3211    0.4663     O
   H82    0.1462    0.2726    0.4586     H
   H83    0.1462    0.3358    0.4895     H
   O84    0.6841    0.0698    0.4393     O
   H85    0.6604    0.0231    0.4291     H
   H86    0.6435    0.1077    0.4388     H
   O87    0.8146    0.8169    0.0650     O
   H88    0.8558    0.8549    0.0648     H
   H89    0.8382    0.7707    0.0547     H
   O90    0.8792    0.0702    0.3416     O
   H91    0.8576    0.0235    0.3309     H
   H92    0.9322    0.0569    0.3478     H
   O93    0.9665    0.9730    0.1402     O
   H94    0.9346    0.9397    0.1560     H
   H95    1.0190    0.9589    0.1468     H
   O96    0.0693    0.6847    0.4403     O
   H97    0.1074    0.6433    0.4399     H
   H98    0.0235    0.6619    0.4295     H
   O99    0.7178    0.7182    0.3597     O
  H100    0.6847    0.6850    0.3436     H
  H101    0.7056    0.7040    0.3855     H
  O102    0.8701    0.1812    0.0919     O
  H103    0.8914    0.2286    0.0810     H
  H104    0.8172    0.1936    0.0975     H
  O105    0.5340    0.5311    0.3592     O
  H106    0.4804    0.5435    0.3524     H
  H107    0.5645    0.5630    0.3427     H
  O108    0.6843    0.8739    0.3395     O
  H109    0.6953    0.8205    0.3457     H
  H110    0.6623    0.8951    0.3629     H
  O111    0.0673    0.8773    0.3392     O
  H112    0.0892    0.8557    0.3626     H
  H113    0.0557    0.9302    0.3457     H
  O114    0.5694    0.3760    0.3381     O
  H115    0.5899    0.3554    0.3615     H
  H116    0.5566    0.4298    0.3443     H
  O117    0.3203    0.3211    0.0645     O
  H118    0.3080    0.3089    0.0910     H
  H119    0.3397    0.2730    0.0538     H
  O120    0.3209    0.1323    0.1588     O
  H121    0.3363    0.1066    0.1357     H
  H122    0.2734    0.1057    0.1667     H
  O123    0.1181    0.4352    0.4094     O
  H124    0.1204    0.3949    0.4287     H
  H125    0.1394    0.4117    0.3863     H
  O126    0.8715    0.0633    0.0339     O
  H127    0.8930    0.0870    0.0115     H
  H128    0.8706    0.1047    0.0533     H
  O129    0.0709    0.0664    0.4336     O
  H130    0.0231    0.0895    0.4443     H
  H131    0.1076    0.1067    0.4345     H
  O132    0.8741    0.1844    0.2835     O
  H133    0.8768    0.1451    0.3028     H
  H134    0.9280    0.1961    0.2774     H
  O135    0.2824    0.2848    0.1406     O
  H136    0.3140    0.3148    0.1573     H
  H137    0.2956    0.2308    0.1469     H
  O138    0.3663    0.5698    0.0353     O
  H139    0.3930    0.5860    0.0119     H
  H140    0.3920    0.5228    0.0429     H
  O141    0.1183    0.6251    0.0623     O
  H142    0.1527    0.6557    0.0782     H
  H143    0.1523    0.5936    0.0468     H
  O144    0.8730    0.6823    0.3429     O
  H145    0.8193    0.6933    0.3487     H
  H146    0.8711    0.6425    0.3234     H
  O147    0.9640    0.4694    0.3891     O
  H148    1.0168    0.4570    0.3957     H
  H149    0.9331    0.4367    0.4057     H
  O150    0.6843    0.6827    0.4347     O
  H151    0.7295    0.6594    0.4454     H
  H152    0.6455    0.6416    0.4349     H
  O153    0.6804    0.3817    0.2828     O
  H154    0.7278    0.3588    0.2943     H
  H155    0.6436    0.3797    0.3028     H
  O156    0.4717    0.7819    0.4847     O
  H157    0.4572    0.7947    0.5110     H
  H158    0.4381    0.8130    0.4689     H
  O159    0.0673    0.1778    0.1896     O
  H160    0.0203    0.1647    0.1770     H
  H161    0.0839    0.2261    0.1771     H
  O162    0.3210    0.4384    0.3095     O
  H163    0.3581    0.3973    0.3094     H
  H164    0.2741    0.4151    0.3200     H
  O165    0.4298    0.6251    0.4655     O
  H166    0.4433    0.6793    0.4719     H
  H167    0.4097    0.6047    0.4887     H
  O168    0.5302    0.2138    0.0176     O
  H169    0.5433    0.2675    0.0219     H
  H170    0.5446    0.2041   -0.0089     H
  O171    0.6291    0.9284    0.2148     O
  H172    0.6082    0.9764    0.2044     H
  H173    0.6812    0.9409    0.2219     H
  O174    0.4279    0.8197    0.0601     O
  H175    0.4760    0.8404    0.0707     H
  H176    0.4402    0.8068    0.0339     H
  O177    0.7182    0.2222    0.1073     O
  H178    0.7054    0.2080    0.1338     H
  H179    0.6858    0.1898    0.0916     H
  O180    0.5663    0.3680    0.0316     O
  H181    0.6048    0.3701    0.0518     H
  H182    0.5203    0.3897    0.0433     H
  O183    0.1846    0.6834    0.1840     O
  H184    0.1441    0.6441    0.1846     H
  H185    0.1609    0.7284    0.1951     H
  O186    0.6779    0.1780    0.1836     O
  H187    0.7251    0.1624    0.1960     H
  H188    0.6632    0.2256    0.1966     H
  O189    0.0649    0.3781    0.0921     O
  H190    0.0536    0.4310    0.0976     H
  H191    0.1049    0.3801    0.0722     H
  O192    0.9302    0.3174    0.0595     O
  H193    0.8929    0.3577    0.0603     H
  H194    0.9771    0.3406    0.0707     H
  O195    0.0699    0.5701    0.1857     O
  H196    0.0562    0.5571    0.1593     H
  H197    0.0908    0.5231    0.1962     H
  O198    0.9684    0.2780    0.4839     O
  H199    1.0215    0.2929    0.4794     H
  H200    0.9582    0.2934    0.5103     H
  O201    0.5360    0.0286    0.1115     O
  H202    0.5668    0.0612    0.0949     H
  H203    0.4830    0.0412    0.1049     H
  O204    0.8237    0.6305    0.1576     O
  H205    0.7757    0.6083    0.1684     H
  H206    0.8108    0.6821    0.1516     H
  O207    0.3686    0.0716    0.2856     O
  H208    0.3930    0.0863    0.2621     H
  H209    0.3944    0.0232    0.2931     H
  O210    0.1294    0.3146    0.1620     O
  H211    0.1075    0.3370    0.1384     H
  H212    0.1819    0.3038    0.1556     H
  O213    0.8659    0.5669    0.2863     O
  H214    0.8920    0.5208    0.2941     H
  H215    0.8927    0.5831    0.2627     H
  O216    0.9316    0.1280    0.4653     O
  H217    0.8928    0.1306    0.4457     H
  H218    0.9434    0.1820    0.4713     H
  O219    0.3721    0.3687    0.1879     O
  H220    0.3427    0.4028    0.2037     H
  H221    0.4044    0.4030    0.1720     H
  O222    0.2830    0.9691    0.4841     O
  H223    0.2922    0.9553    0.5106     H
  H224    0.2293    0.9549    0.4795     H
  O225    0.1818    0.3723    0.3418     O
  H226    0.1426    0.3714    0.3216     H
  H227    0.1925    0.3188    0.3469     H
  O228    0.8171    0.9357    0.3096     O
  H229    0.8555    0.8942    0.3100     H
  H230    0.7717    0.9130    0.3205     H
  O231    0.3778    0.8720    0.4383     O
  H232    0.3443    0.8429    0.4221     H
  H233    0.3430    0.9040    0.4540     H
  O234    0.8188    0.6231    0.4667     O
  H235    0.8579    0.6212    0.4472     H
  H236    0.8074    0.5689    0.4724     H
  O237    0.6224    0.1265    0.0636     O
  H238    0.5915    0.1570    0.0467     H
  H239    0.6541    0.0945    0.0463     H
  O240    0.6227    0.6228    0.3135     O
  H241    0.6553    0.5926    0.2963     H
  H242    0.5927    0.6550    0.2966     H
  O243    0.1816    0.5693    0.4416     O
  H244    0.1656    0.5226    0.4284     H
  H245    0.2282    0.5851    0.4284     H
  O246    0.5676    0.6785    0.1920     O
  H247    0.5210    0.6640    0.1793     H
  H248    0.5839    0.7262    0.1789     H
  O249    0.7775    0.9639    0.2338     O
  H250    0.7921    1.0174    0.2286     H
  H251    0.7920    0.9555    0.2602     H
  O252    0.1191    0.9288    0.1609     O
  H253    0.1441    0.9762    0.1684     H
  H254    0.1442    0.9142    0.1368     H
  O255    0.1767    0.1828    0.4366     O
  H256    0.2242    0.1615    0.4471     H
  H257    0.1890    0.1944    0.4101     H
  O258    0.3834    0.0696    0.0923     O
  H259    0.3809    0.1068    0.0723     H
  H260    0.3601    0.0226    0.0810     H
  O261    0.8761    0.6820    0.0347     O
  H262    0.9298    0.6937    0.0286     H
  H263    0.8789    0.6430    0.0543     H
  O264    0.7840    0.4670    0.4841     O
  H265    0.7303    0.4536    0.4798     H
  H266    0.7934    0.4535    0.5108     H
  O267    0.7180    0.5347    0.2638     O
  H268    0.7072    0.4812    0.2714     H
  H269    0.7702    0.5432    0.2716     H
  O270    0.9346    0.6250    0.4110     O
  H271    0.9124    0.6456    0.3879     H
  H272    0.9457    0.5709    0.4048     H
  O273    0.0685    0.3704    0.2834     O
  H274    0.0214    0.3963    0.2917     H
  H275    0.0836    0.3971    0.2603     H
  O276    0.2144    0.7185    0.1088     O
  H277    0.2055    0.7055    0.1354     H
  H278    0.2684    0.7057    0.1044     H
  O279    0.6785    0.8814    0.0324     O
  H280    0.7260    0.8589    0.0439     H
  H281    0.6420    0.8804    0.0526     H
  O282    0.8136    0.1170    0.2147     O
  H283    0.8544    0.1193    0.1962     H
  H284    0.8357    0.1395    0.2382     H
  O285    0.9704    0.7818    0.2314     O
  H286    0.9561    0.7918    0.2584     H
  H287    0.9573    0.7289    0.2274     H
  O288    0.6259    0.3166    0.4068     O
  H289    0.6785    0.3047    0.4013     H
  H290    0.6284    0.3557    0.4273     H
  O291    0.4288    0.3152    0.3101     O
  H292    0.4767    0.3371    0.3211     H
  H293    0.4416    0.3035    0.2842     H
  O294    0.3175    0.1228    0.4677     O
  H295    0.3569    0.1211    0.4474     H
  H296    0.3063    0.0698    0.4730     H
  O297    0.4732    0.2841    0.2367     O
  H298    0.4399    0.3152    0.2206     H
  H299    0.4597    0.2313    0.2304     H
  O300    0.1313    0.9296    0.4649     O
  H301    0.1053    0.9148    0.4886     H
  H302    0.1064    0.9770    0.4572     H
  O303    0.0296    0.7183    0.0140     O
  H304    0.0427    0.7709    0.0210     H
  H305    0.0614    0.6866    0.0306     H
  O306    0.0678    0.8710    0.0324     O
  H307    0.0216    0.8914    0.0442     H
  H308    0.1060    0.8720    0.0529     H
  O309    0.4714    0.9702    0.3923     O
  H310    0.4591    0.9566    0.3660     H
  H311    0.4386    0.9372    0.4079     H
  O312    0.0324    0.0271    0.3593     O
  H313    0.0638    0.0603    0.3428     H
  H314    0.0458    0.0422    0.3851     H
  O315    0.9333    0.4323    0.3145     O
  H316    0.8941    0.3917    0.3151     H
  H317    0.9435    0.4434    0.3411     H
  O318    0.4293    0.1297    0.2183     O
  H319    0.3926    0.1294    0.1977     H
  H320    0.4767    0.1088    0.2068     H
  O321    0.9285    0.8185    0.3088     O
  H322    0.9758    0.8344    0.3216     H
  H323    0.9134    0.7718    0.3220     H
  O324    0.2827    0.4644    0.2338     O
  H325    0.2966    0.5184    0.2285     H
  H326    0.2966    0.4568    0.2602     H
  O327    0.6223    0.9347    0.4094     O
  H328    0.6206    0.8944    0.4289     H
  H329    0.5688    0.9453    0.4037     H
  O330    0.3671    0.1828    0.3424     O
  H331    0.3896    0.2284    0.3307     H
  H332    0.3688    0.1442    0.3223     H
  O333    0.5309    0.7167    0.2669     O
  H334    0.5444    0.7076    0.2402     H
  H335    0.5453    0.7699    0.2715     H
  O336    0.3800    0.5665    0.3416     O
  H337    0.3593    0.5219    0.3300     H
  H338    0.3796    0.6059    0.3208     H
  O339    0.3749    0.1799    0.0356     O
  H340    0.3549    0.1589    0.0121     H
  H341    0.4286    0.1927    0.0297     H
  O342    0.8223    0.1298    0.4099     O
  H343    0.7738    0.1052    0.4173     H
  H344    0.8372    0.1044    0.3865     H
  O345    0.7130    0.0352    0.0145     O
  H346    0.7671    0.0440    0.0213     H
  H347    0.7035   -0.0174    0.0215     H
  O348    0.2133    0.5329    0.0149     O
  H349    0.2674    0.5428    0.0220     H
  H350    0.2047    0.4805    0.0219     H
  O351    0.3791    0.6803    0.2824     O
  H352    0.3576    0.7278    0.2931     H
  H353    0.4317    0.6928    0.2766     H
  O354    0.5712    0.1804    0.4402     O
  H355    0.5242    0.1651    0.4273     H
  H356    0.5867    0.2277    0.4273     H
  O357    0.0335    0.2180    0.2661     O
  H358    0.0460    0.2717    0.2700     H
  H359    0.0456    0.2084    0.2391     H
  O360    0.7812    0.7769    0.1412     O
  H361    0.8128    0.8104    0.1569     H
  H362    0.7942    0.7908    0.1148     H
  O363    0.5693    0.0662    0.1866     O
  H364    0.6079    0.1060    0.1855     H
  H365    0.5578    0.0546    0.1597     H
  O366    0.4345    0.6220    0.1602     O
  H367    0.3942    0.6218    0.1788     H
  H368    0.4106    0.6438    0.1368     H
  O369    0.5695    0.8784    0.0885     O
  H370    0.5897    0.8562    0.1123     H
  H371    0.5571    0.9310    0.0952     H
  O372    0.6244    0.8164    0.1581     O
  H373    0.6270    0.8556    0.1773     H
  H374    0.6787    0.8042    0.1523     H
  O375    0.5694    0.5657    0.4349     O
  H376    0.5568    0.5547    0.4086     H
  H377    0.5215    0.5866    0.4459     H
  O378    0.8827    0.5693    0.0915     O
  H379    0.8564    0.5852    0.1144     H
  H380    0.8566    0.5215    0.0837     H
  O381    0.0315    0.5289    0.1101     O
  H382    0.0628    0.5622    0.0936     H
  H383   -0.0209    0.5423    0.1039     H
  O384    0.8205    0.3190    0.3134     O
  H385    0.8060    0.3060    0.3399     H
  H386    0.8403    0.2719    0.3029     H
  O387    0.6229    0.3182    0.2151     O
  H388    0.5702    0.3056    0.2215     H
  H389    0.6441    0.3398    0.2388     H
  O390    0.1226    0.1223    0.3131     O
  H391    0.0929    0.1556    0.2960     H
  H392    0.1546    0.0922    0.2961     H
  O393    0.1796    0.3845    0.0349     O
  H394    0.1646    0.3588    0.0119     H
  H395    0.2276    0.3580    0.0430     H
  O396    0.3218    0.8198    0.3127     O
  H397    0.3098    0.8075    0.3391     H
  H398    0.2736    0.8397    0.3021     H
  O399    0.1230    0.8144    0.2165     O
  H400    0.0694    0.8030    0.2217     H
  H401    0.1215    0.8545    0.1970     H
  O402    0.7768    0.2809    0.3883     O
  H403    0.8090    0.3127    0.4049     H
  H404    0.7906    0.2286    0.3948     H
  O405    0.6850    0.5669    0.1871     O
  H406    0.6968    0.5553    0.2136     H
  H407    0.6443    0.6056    0.1884     H
  O408    0.5616    0.8724    0.7843     O
  H409    0.6033    0.8724    0.8033     H
  H410    0.5847    0.8932    0.7614     H
  O411    0.6765    0.3750    0.5926     O
  H412    0.6886    0.3224    0.5984     H
  H413    0.7242    0.3960    0.5815     H
  O414    0.3219    0.9313    0.5588     O
  H415    0.2731    0.9148    0.5715     H
  H416    0.3355    0.9774    0.5714     H
  O417    0.9333    0.6259    0.7145     O
  H418    0.9125    0.6051    0.7382     H
  H419    0.9458    0.6791    0.7207     H
  O420    0.9367    0.9337    0.5649     O
  H421    0.8952    0.8958    0.5650     H
  H422    0.9137    0.9793    0.5539     H
  O423    0.3746    0.6769    0.5917     O
  H424    0.3953    0.7237    0.5814     H
  H425    0.3208    0.6893    0.5979     H
  O426    0.3218    0.6180    0.7158     O
  H427    0.3360    0.6432    0.7391     H
  H428    0.2738    0.6439    0.7077     H
  O429    0.8169    0.4307    0.5596     O
  H430    0.8400    0.4778    0.5707     H
  H431    0.8573    0.3935    0.5604     H
  O432    0.8722    0.3788    0.9368     O
  H433    0.8419    0.3454    0.9214     H
  H434    0.9041    0.3438    0.9528     H
  O435    0.3226    0.6249    0.9094     O
  H436    0.3103    0.6780    0.9029     H
  H437    0.2750    0.6041    0.9196     H
  O438    0.4380    0.1183    0.9100     O
  H439    0.4145    0.1407    0.8867     H
  H440    0.3976    0.1188    0.9287     H
  O441    0.2175    0.2177    0.8592     O
  H442    0.2710    0.2090    0.8522     H
  H443    0.2077    0.2706    0.8519     H
  O444    0.6288    0.4381    0.9664     O
  H445    0.6072    0.4144    0.9893     H
  H446    0.6287    0.3974    0.9473     H
  O447    0.6204    0.4307    0.6607     O
  H448    0.6411    0.4108    0.6371     H
  H449    0.5671    0.4445    0.6544     H
  O450    0.1325    0.8205    0.9095     O
  H451    0.1070    0.8348    0.8866     H
  H452    0.1059    0.7724    0.9179     H
  O453    0.2838    0.7798    0.8923     O
  H454    0.2301    0.7940    0.8968     H
  H455    0.2928    0.7928    0.8657     H
  O456    0.4283    0.4333    0.5672     O
  H457    0.4132    0.4786    0.5541     H
  H458    0.4761    0.4165    0.5538     H
  O459    0.2188    0.0300    0.7656     O
  H460    0.1872    0.0638    0.7819     H
  H461    0.2709    0.0430    0.7721     H
  O462    0.6157    0.8219    0.9645     O
  H463    0.6407    0.8372    0.9881     H
  H464    0.6421    0.7745    0.9569     H
  O465    0.1849    0.8759    0.7842     O
  H466    0.1971    0.9301    0.7783     H
  H467    0.1630    0.8562    0.7610     H
  O468    0.1809    0.0688    0.6879     O
  H469    0.2271    0.0898    0.6775     H
  H470    0.1939    0.0563    0.7149     H
  O471    0.4678    0.4681    0.6435     O
  H472    0.4542    0.4588    0.6166     H
  H473    0.4546    0.5215    0.6478     H
  O474    0.9315    0.1168    0.6584     O
  H475    0.9777    0.1395    0.6698     H
  H476    0.8935    0.1190    0.6786     H
  O477    0.8753    0.8729    0.6878     O
  H478    0.9068    0.9074    0.6720     H
  H479    0.8440    0.9069    0.7031     H
  O480    0.1249    0.4307    0.7175     O
  H481    0.1044    0.4764    0.7063     H
  H482    0.1791    0.4436    0.7234     H
  O483    0.1829    0.8682    0.5901     O
  H484    0.1418    0.8695    0.5719     H
  H485    0.1606    0.8902    0.6138     H
  O486    0.4289    0.9306    0.8124     O
  H487    0.4757    0.9108    0.8023     H
  H488    0.4415    0.9446    0.8393     H
  O489    0.1202    0.3206    0.9688     O
  H490    0.1414    0.2738    0.9570     H
  H491    0.1208    0.3581    0.9486     H
  O492    0.6808    0.0689    0.9392     O
  H493    0.6930    0.0565    0.9658     H
  H494    0.6607    0.0213    0.9286     H
  O495    0.8200    0.8194    0.5649     O
  H496    0.8073    0.8072    0.5908     H
  H497    0.7718    0.8407    0.5539     H
  O498    0.8820    0.0636    0.8397     O
  H499    0.8806    0.1051    0.8208     H
  H500    0.8607    0.0862    0.8629     H
  O501    0.9693    0.9676    0.6427     O
  H502    0.9555    1.0200    0.6473     H
  H503    0.9558    0.9587    0.6154     H
  O504    0.0695    0.6812    0.9399     O
  H505    0.0222    0.6599    0.9295     H
  H506    0.0567    0.6946    0.9663     H
  O507    0.7208    0.7156    0.8590     O
  H508    0.7066    0.7695    0.8541     H
  H509    0.7070    0.7070    0.8854     H
  O510    0.8675    0.1832    0.5920     O
  H511    0.8698    0.1434    0.5724     H
  H512    0.8897    0.1595    0.6147     H
  O513    0.5333    0.5304    0.8601     O
  H514    0.4804    0.5436    0.8536     H
  H515    0.5644    0.5627    0.8436     H
  O516    0.6805    0.8689    0.8397     O
  H517    0.6657    0.8944    0.8634     H
  H518    0.7274    0.8950    0.8317     H
  O519    0.0701    0.8778    0.8441     O
  H520    0.0243    0.8571    0.8327     H
  H521    0.1083    0.8776    0.8233     H
  O522    0.5642    0.3739    0.8403     O
  H523    0.5538    0.4277    0.8463     H
  H524    0.6043    0.3758    0.8210     H
  O525    0.3164    0.3174    0.5627     O
  H526    0.3045    0.3062    0.5895     H
  H527    0.3552    0.3575    0.5639     H
  O528    0.3128    0.1313    0.6582     O
  H529    0.3545    0.1310    0.6774     H
  H530    0.3356    0.1094    0.6356     H
  O531    0.1176    0.4325    0.9109     O
  H532    0.1430    0.4784    0.9178     H
  H533    0.1433    0.4157    0.8866     H
  O534    0.8738    0.0690    0.5342     O
  H535    0.8940    0.0903    0.5108     H
  H536    0.8204    0.0555    0.5281     H
  O537    0.0673    0.0725    0.9363     O
  H538    0.0882    0.0253    0.9470     H
  H539    0.0540    0.0593    0.9099     H
  O540    0.8772    0.1810    0.7825     O
  H541    0.9298    0.1927    0.7764     H
  H542    0.8567    0.2289    0.7936     H
  O543    0.2833    0.2864    0.6401     O
  H544    0.2297    0.2949    0.6465     H
  H545    0.2925    0.2327    0.6466     H
  O546    0.3738    0.5650    0.5335     O
  H547    0.3720    0.6046    0.5534     H
  H548    0.3204    0.5546    0.5276     H
  O549    0.1264    0.6222    0.5658     O
  H550    0.1578    0.5917    0.5486     H
  H551    0.0950    0.6540    0.5487     H
  O552    0.8751    0.6845    0.8387     O
  H553    0.8225    0.6965    0.8451     H
  H554    0.8966    0.6628    0.8624     H
  O555    0.9645    0.4734    0.8887     O
  H556    1.0172    0.4605    0.8957     H
  H557    0.9330    0.4405    0.9048     H
  O558    0.6831    0.6856    0.9349     O
  H559    0.6437    0.6445    0.9349     H
  H560    0.7276    0.6620    0.9457     H
  O561    0.6802    0.3754    0.7826     O
  H562    0.6913    0.4297    0.7767     H
  H563    0.7269    0.3561    0.7936     H
  O564    0.4634    0.7849    0.9843     O
  H565    0.4552    0.7318    0.9779     H
  H566    0.5173    0.7947    0.9774     H
  O567    0.0673    0.1840    0.6882     O
  H568    0.1075    0.1445    0.6891     H
  H569    0.0554    0.1941    0.7149     H
  O570    0.3178    0.4338    0.8108     O
  H571    0.3070    0.4454    0.7842     H
  H572    0.3581    0.3945    0.8098     H
  O573    0.4324    0.6333    0.9686     O
  H574    0.4779    0.6105    0.9569     H
  H575    0.3936    0.6312    0.9485     H
  O576    0.5345    0.2224    0.5161     O
  H577    0.4815    0.2068    0.5211     H
  H578    0.5437    0.2076    0.4896     H
  O579    0.6242    0.9347    0.7177     O
  H580    0.6777    0.9461    0.7228     H
  H581    0.6256    0.8949    0.6979     H
  O582    0.4294    0.8153    0.5610     O
  H583    0.3925    0.8571    0.5610     H
  H584    0.4763    0.8380    0.5713     H
  O585    0.7174    0.2234    0.6096     O
  H586    0.6856    0.1895    0.5935     H
  H587    0.7694    0.2088    0.6038     H
  O588    0.5668    0.3749    0.5325     O
  H589    0.6055    0.3730    0.5530     H
  H590    0.5557    0.3217    0.5269     H
  O591    0.1822    0.6845    0.6862     O
  H592    0.1929    0.6958    0.6597     H
  H593    0.1428    0.6439    0.6853     H
  O594    0.6804    0.1802    0.6860     O
  H595    0.6935    0.1935    0.6597     H
  H596    0.6592    0.2272    0.6968     H
  O597    0.0691    0.3778    0.5897     O
  H598    0.0893    0.3569    0.6134     H
  H599    0.0553    0.4308    0.5960     H
  O600    0.9295    0.3223    0.5596     O
  H601    0.9138    0.2743    0.5724     H
  H602    0.9764    0.3367    0.5721     H
  O603    0.0699    0.5650    0.6858     O
  H604    0.0567    0.5530    0.6591     H
  H605    0.0235    0.5865    0.6965     H
  O606    0.9652    0.2779    0.9837     O
  H607    1.0187    0.2931    0.9790     H
  H608    0.9554    0.2933    1.0099     H
  O609    0.5302    0.0370    0.6078     O
  H610    0.5444    0.0457    0.6339     H
  H611    0.5433   -0.0177    0.6031     H
  O612    0.8205    0.6309    0.6573     O
  H613    0.8582    0.6293    0.6778     H
  H614    0.7743    0.6084    0.6686     H
  O615    0.3659    0.0670    0.7840     O
  H616    0.3929    0.0844    0.7609     H
  H617    0.3926    0.0208    0.7916     H
  O618    0.1284    0.3176    0.6560     O
  H619    0.1083    0.2723    0.6676     H
  H620    0.1277    0.3565    0.6768     H
  O621    0.8756    0.5657    0.7844     O
  H622    0.8741    0.6057    0.8033     H
  H623    0.8211    0.5557    0.7783     H
  O624    0.9314    0.1303    0.9677     O
  H625    0.9790    0.1089    0.9564     H
  H626    0.9440    0.1824    0.9737     H
  O627    0.3729    0.3727    0.6879     O
  H628    0.3420    0.3430    0.6706     H
  H629    0.4043    0.4057    0.6711     H
  O630    0.2853    0.9693    0.9855     O
  H631    0.2321    0.9565    0.9787     H
  H632    0.3162    0.9362    0.9696     H
  O633    0.1802    0.3671    0.8415     O
  H634    0.1427    0.3693    0.8217     H
  H635    0.2272    0.3896    0.8298     H
  O636    0.8140    0.9338    0.8087     O
  H637    0.8549    0.8944    0.8095     H
  H638    0.8372    0.9787    0.8194     H
  O639    0.3778    0.8759    0.9388     O
  H640    0.3451    0.8415    0.9226     H
  H641    0.4075    0.8419    0.9539     H
  O642    0.8149    0.6205    0.9648     O
  H643    0.8370    0.6415    0.9890     H
  H644    0.8024    0.5687    0.9708     H
  O645    0.6295    0.1236    0.5623     O
  H646    0.5953    0.0939    0.5779     H
  H647    0.5954    0.1561    0.5465     H
  O648    0.6226    0.6204    0.8121     O
  H649    0.5921    0.6545    0.7968     H
  H650    0.6546    0.6546    0.8281     H
  O651    0.1812    0.5664    0.9377     O
  H652    0.1417    0.6056    0.9390     H
  H653    0.1927    0.5544    0.9645     H
  O654    0.5693    0.6813    0.6895     O
  H655    0.5564    0.6942    0.7159     H
  H656    0.5219    0.6610    0.6787     H
  O657    0.7818    0.9663    0.7316     O
  H658    0.7945    1.0198    0.7273     H
  H659    0.7947    0.9572    0.7585     H
  O660    0.1245    0.9282    0.6599     O
  H661    0.0712    0.9411    0.6534     H
  H662    0.1459    0.9754    0.6698     H
  O663    0.1843    0.1817    0.9367     O
  H664    0.1954    0.1939    0.9097     H
  H665    0.1445    0.1433    0.9355     H
  O666    0.3732    0.0655    0.5911     O
  H667    0.4276    0.0548    0.5973     H
  H668    0.3754    0.1047    0.5718     H
  O669    0.8798    0.6802    0.5346     O
  H670    0.8549    0.6655    0.5111     H
  H671    0.8537    0.7280    0.5424     H
  O672    0.7803    0.4726    0.9841     O
  H673    0.7280    0.4592    0.9779     H
  H674    0.8116    0.4389    0.9677     H
  O675    0.7176    0.5321    0.7664     O
  H676    0.7049    0.5447    0.7398     H
  H677    0.6842    0.5645    0.7816     H
  O678    0.9357    0.6236    0.9098     O
  H679    0.9455    0.5710    0.9032     H
  H680    0.8945    0.6212    0.9292     H
  O681    0.0694    0.3687    0.7859     O
  H682    0.0846    0.3948    0.7623     H
  H683    0.0225    0.3944    0.7938     H
  O684    0.2181    0.7187    0.6103     O
  H685    0.2041    0.7706    0.6031     H
  H686    0.1860    0.6860    0.5940     H
  O687    0.6795    0.8793    0.5356     O
  H688    0.6592    0.8573    0.5118     H
  H689    0.6929    0.9315    0.5289     H
  O690    0.8186    0.1181    0.7154     O
  H691    0.8345    0.1447    0.7383     H
  H692    0.7713    0.1445    0.7074     H
  O693    0.9679    0.7798    0.7356     O
  H694    1.0203    0.7933    0.7292     H
  H695    0.9365    0.8129    0.7192     H
  O696    0.6315    0.3213    0.9113     O
  H697    0.6073    0.2736    0.9189     H
  H698    0.6061    0.3354    0.8873     H
  O699    0.4311    0.3194    0.8111     O
  H700    0.4438    0.3058    0.7841     H
  H701    0.4778    0.3396    0.8212     H
  O702    0.3233    0.1207    0.9658     O
  H703    0.2757    0.1418    0.9553     H
  H704    0.3107    0.0680    0.9723     H
  O705    0.4679    0.2783    0.7349     O
  H706    0.4355    0.3109    0.7181     H
  H707    0.5194    0.2927    0.7287     H
  O708    0.1289    0.9360    0.9655     O
  H709    0.1076    0.9128    0.9886     H
  H710    0.1285    0.8948    0.9466     H
  O711    0.0356    0.7181    0.5168     O
  H712    0.0444    0.7047    0.4904     H
  H713   -0.0187    0.7050    0.5214     H
  O714    0.0700    0.8716    0.5351     O
  H715    0.0228    0.8928    0.5451     H
  H716    0.0570    0.8184    0.5284     H
  O717    0.4698    0.9694    0.8887     O
  H718    0.4574    1.0206    0.8961     H
  H719    0.4381    0.9366    0.9059     H
  O720    0.0321    0.0326    0.8603     O
  H721    0.0420   -0.0215    0.8535     H
  H722   -0.0202    0.0413    0.8528     H
  O723    0.9333    0.4291    0.8147     O
  H724    0.9120    0.4765    0.8037     H
  H725    0.9451    0.4422    0.8410     H
  O726    0.4298    0.1304    0.7163     O
  H727    0.4425    0.1823    0.7224     H
  H728    0.4776    0.1088    0.7052     H
  O729    0.9339    0.8198    0.8116     O
  H730    0.9463    0.8074    0.7848     H
  H731    0.9128    0.7729    0.8219     H
  O732    0.2810    0.4691    0.7358     O
  H733    0.3126    0.4367    0.7187     H
  H734    0.2947    0.5207    0.7290     H
  O735    0.6265    0.9339    0.9084     O
  H736    0.6235    0.8952    0.9278     H
  H737    0.5723    0.9461    0.9023     H
  O738    0.3689    0.1838    0.8425     O
  H739    0.3696    0.1449    0.8220     H
  H740    0.3912    0.2288    0.8309     H
  O741    0.5327    0.7154    0.7649     O
  H742    0.4801    0.7059    0.7721     H
  H743    0.5415    0.7695    0.7719     H
  O744    0.3832    0.5709    0.8401     O
  H745    0.3577    0.5235    0.8320     H
  H746    0.3576    0.5851    0.8637     H
  O747    0.3826    0.1777    0.5356     O
  H748    0.3570    0.2258    0.5431     H
  H749    0.3574    0.1626    0.5122     H
  O750    0.8197    0.1288    0.9072     O
  H751    0.8573    0.1293    0.9278     H
  H752    0.7736    0.1074    0.9188     H
  O753    0.7199    0.0278    0.5153     O
  H754    0.6877    0.0605    0.5314     H
  H755    0.7064    0.0420    0.4892     H
  O756    0.2210    0.5341    0.5163     O
  H757    0.2060    0.4808    0.5209     H
  H758    0.2071    0.5435    0.4897     H
  O759    0.3800    0.6801    0.7831     O
  H760    0.3797    0.6424    0.8034     H
  H761    0.3578    0.7263    0.7948     H
  O762    0.5703    0.1827    0.9414     O
  H763    0.5237    0.1600    0.9304     H
  H764    0.6077    0.1416    0.9407     H
  O765    0.0275    0.2148    0.7637     O
  H766    0.0603    0.1838    0.7797     H
  H767    0.0404    0.2680    0.7706     H
  O768    0.7786    0.7859    0.6385     O
  H769    0.7920    0.7330    0.6452     H
  H770    0.8109    0.8171    0.6549     H
  O771    0.5662    0.0702    0.6837     O
  H772    0.6067    0.1079    0.6847     H
  H773    0.5890    0.0239    0.6953     H
  O774    0.4352    0.6219    0.6595     O
  H775    0.3939    0.6223    0.6786     H
  H776    0.4117    0.6423    0.6364     H
  O777    0.5630    0.8776    0.5903     O
  H778    0.6039    0.8782    0.5715     H
  H779    0.5868    0.8566    0.6135     H
  O780    0.6266    0.8200    0.6587     O
  H781    0.6060    0.7724    0.6695     H
  H782    0.6794    0.8078    0.6523     H
  O783    0.5647    0.5699    0.9350     O
  H784    0.5535    0.5569    0.9086     H
  H785    0.5865    0.5229    0.9459     H
  O786    0.8816    0.5652    0.5911     O
  H787    0.8603    0.5883    0.6141     H
  H788    0.8795    0.6060    0.5718     H
  O789    0.0304    0.5276    0.6089     O
  H790    0.0630    0.5610    0.5930     H
  H791   -0.0214    0.5426    0.6024     H
  O792    0.8170    0.3192    0.8132     O
  H793    0.8053    0.3078    0.8400     H
  H794    0.8568    0.3582    0.8144     H
  O795    0.6167    0.3160    0.7170     O
  H796    0.6401    0.3388    0.7394     H
  H797    0.6182    0.3568    0.6975     H
  O798    0.1260    0.1256    0.8097     O
  H799    0.1568    0.1567    0.8267     H
  H800    0.0943    0.0942    0.8270     H
  O801    0.1795    0.3825    0.5311     O
  H802    0.1423    0.3814    0.5517     H
  H803    0.2264    0.3609    0.5425     H
  O804    0.3166    0.8116    0.8165     O
  H805    0.3558    0.8521    0.8154     H
  H806    0.2717    0.8343    0.8050     H
  O807    0.1204    0.8197    0.7189     O
  H808    0.1213    0.8576    0.6986     H
  H809    0.1410    0.7731    0.7070     H
  O810    0.7838    0.2871    0.8900     O
  H811    0.7936    0.2330    0.8968     H
  H812    0.7313    0.2958    0.8973     H
  O813    0.6875    0.5661    0.6892     O
  H814    0.6462    0.6045    0.6895     H
  H815    0.6638    0.5205    0.6790     H
G12816    0.0000    0.0000    0.2500   G12
G12817    0.2500    0.7500    0.0000   G12
G12818    0.0000    0.7500    0.6250   G12
G12819    0.5000    0.2500    0.6250   G12
G12820    0.7500    0.2500    0.0000   G12
G12821    0.5000    0.0000    0.5000   G12
G12822    0.0000    0.2500    0.3750   G12
G12823    0.5000    0.7500    0.3750   G12
G12824    0.5000    0.0000    0.0000   G12
G12825    0.2500    0.2500    0.7500   G12
G12826    0.7500    0.7500    0.7500   G12
G12827    0.2500    0.5000    0.6250   G12
G12828    0.2500    0.0000    0.3750   G12
G12829    0.2500    0.7500    0.5000   G12
G12830    0.5000    0.7500    0.8750   G12
G12831    0.7500    0.5000    0.8750   G12
G12832    0.0000    0.5000    0.0000   G12
G12833    0.0000    0.0000    0.7500   G12
G12834    0.0000    0.7500    0.1250   G12
G12835    0.2500    0.2500    0.2500   G12
G12836    0.2500    0.0000    0.8750   G12
G12837    0.7500    0.5000    0.3750   G12
G12838    0.0000    0.5000    0.5000   G12
G12839    0.5000    0.5000    0.7500   G12
G12840    0.7500    0.0000    0.1250   G12
G12841    0.2500    0.5000    0.1250   G12
G12842    0.5000    0.2500    0.1250   G12
G12843    0.0000    0.2500    0.8750   G12
G12844    0.5000    0.5000    0.2500   G12
G12845    0.7500    0.7500    0.2500   G12
G12846    0.7500    0.0000    0.6250   G12
G12847    0.7500    0.2500    0.5000   G12

