data_genice
#
_cell_length_a                12.003488636143597
_cell_length_b                12.003488636143597
_cell_length_c                24.006977272287195
_cell_angle_alpha             90.0
_cell_angle_beta              90.0
_cell_angle_gamma             90.0

_symmetry_cell_setting        'orthorhombic'
_symmetry_space_group_name_H-M   'P 1 '

loop_
  _symmetry_equiv_pos_as_xyz
X,Y,Z

loop_
_atom_site_label
_atom_site_type_symbol
_atom_site_fract_x
_atom_site_fract_y
_atom_site_fract_z
    O0     O    0.8876    0.3085    0.0018
    H1     H    0.8639    0.2659   -0.0298
    H2     H    0.8412    0.3733    0.0013
    O3     O    0.3085   -0.0036    0.0562
    H4     H    0.3733   -0.0025    0.0794
    H5     H    0.2659    0.0595    0.0681
    O6     O    0.0000    0.2554    0.2500
    H7     H    0.0000    0.2066    0.2815
    H8     H    0.0000    0.2066    0.2185
    O9     O    0.6816    0.3161    0.3389
   H10     H    0.7274    0.2715    0.3628
   H11     H    0.6599    0.3780    0.3615
   O12     O    0.1816    0.1778    0.0920
   H13     H    0.2274    0.2255    0.1142
   H14     H    0.1599    0.2230    0.0610
   O15     O   -0.0038    0.7500    0.2481
   H16     H    0.0623    0.7055    0.2495
   H17     H   -0.0010    0.7945    0.2812
   O18     O    0.1841    0.8119    0.0909
   H19     H    0.1227    0.8391    0.1123
   H20     H    0.2246    0.8774    0.0805
   O21     O    0.4964    0.8085    0.1938
   H22     H    0.4975    0.8733    0.1706
   H23     H    0.5595    0.7659    0.1819
   O24     O    0.6195    0.4964    0.4061
   H25     H    0.5398    0.4977    0.4057
   H26     H    0.6410    0.5596    0.3842
   O27     O    0.8183    0.1841    0.4059
   H28     H    0.7753    0.1227    0.4196
   H29     H    0.8390    0.2246    0.4387
   O30     O    0.3119    0.3159    0.1591
   H31     H    0.3774    0.2754    0.1695
   H32     H    0.3391    0.3773    0.1377
   O33     O    0.1915    0.3876    0.2518
   H34     H    0.2341    0.3639    0.2202
   H35     H    0.1267    0.3412    0.2513
   O36     O    0.3161    0.6778    0.1592
   H37     H    0.2715    0.7255    0.1363
   H38     H    0.3780    0.7230    0.1700
   O39     O    0.3222    0.3184    0.3420
   H40     H    0.2745    0.2726    0.3642
   H41     H    0.2770    0.3401    0.3110
   O42     O    0.6878   -0.0036    0.0598
   H43     H    0.7316    0.0596    0.0705
   H44     H    0.6887   -0.0023    0.0199
   O45     O    0.4964    0.1878    0.1902
   H46     H    0.4977    0.1887    0.2301
   H47     H    0.5596    0.2316    0.1795
   O48     O    0.8159    0.8119    0.0909
   H49     H    0.7754    0.8774    0.0805
   H50     H    0.8773    0.8391    0.1123
   O51     O    0.5000    0.8049    0.3094
   H52     H    0.5000    0.8191    0.2702
   H53     H    0.5000    0.8773    0.3261
   O54     O    0.8085    0.3876    0.2482
   H55     H    0.8733    0.3412    0.2487
   H56     H    0.7659    0.3639    0.2798
   O57     O    0.3122    0.0036    0.4402
   H58     H    0.2684   -0.0596    0.4295
   H59     H    0.3113    0.0023    0.4801
   O60     O    0.5000    0.1855    0.3069
   H61     H    0.4369    0.2287    0.3182
   H62     H    0.5631    0.2287    0.3182
   O63     O    0.3159    0.6817    0.3441
   H64     H    0.2754    0.6610    0.3113
   H65     H    0.3773    0.7247    0.3304
   O66     O    0.8862    0.6855   -0.0000
   H67     H    0.8635    0.7287   -0.0315
   H68     H    0.8635    0.7287    0.0315
   O69     O    0.8222    0.8161    0.4092
   H70     H    0.7770    0.8780    0.4200
   H71     H    0.7745    0.7715    0.3863
   O72     O    0.0000    0.1138    0.1573
   H73     H   -0.0631    0.1365    0.1357
   H74     H    0.0631    0.1365    0.1357
   O75     O    0.8184    0.1778    0.0920
   H76     H    0.8401    0.2230    0.0610
   H77     H    0.7726    0.2255    0.1142
   O78     O    0.8049    0.6188    0.2500
   H79     H    0.8773    0.6522    0.2500
   H80     H    0.8191    0.5403    0.2500
   O81     O    0.7500    0.4962   -0.0019
   H82     H    0.7055    0.4990    0.0312
   H83     H    0.7945    0.5623   -0.0005
   O84     O   -0.0000    0.8862    0.3427
   H85     H   -0.0631    0.8635    0.3643
   H86     H    0.0631    0.8635    0.3643
   O87     O    0.6841    0.6817    0.3441
   H88     H    0.6227    0.7247    0.3304
   H89     H    0.7246    0.6610    0.3113
   O90     O    0.4962   -0.0038    0.1250
   H91     H    0.5623   -0.0010    0.1028
   H92     H    0.4990    0.0623    0.1472
   O93     O    0.0036    0.1195    0.3439
   H94     H    0.0023    0.0398    0.3443
   H95     H   -0.0596    0.1410    0.3658
   O96     O    0.1878    0.6195    0.2518
   H97     H    0.1887    0.5398    0.2512
   H98     H    0.2316    0.6410    0.2202
   O99     O    0.3876    0.4964    0.0958
  H100     H    0.3639    0.5595    0.1171
  H101     H    0.3412    0.4975    0.0634
  O102     O    0.3862    0.5000    0.4073
  H103     H    0.3635    0.4369    0.3857
  H104     H    0.3635    0.5631    0.3857
  O105     O    0.1841    0.1881    0.4091
  H106     H    0.2246    0.1226    0.4195
  H107     H    0.1227    0.1609    0.3877
  O108     O    0.0000    0.8812    0.1524
  H109     H    0.0000    0.8478    0.1886
  H110     H    0.0000    0.9597    0.1596
  O111     O    0.1195    0.6878   -0.0018
  H112     H    0.1410    0.7316    0.0298
  H113     H    0.0398    0.6887   -0.0012
  O114     O    0.1188    0.3049    0.0000
  H115     H    0.1522    0.3773    0.0000
  H116     H    0.0403    0.3191    0.0000
  O117     O    0.6817    0.3119    0.1579
  H118     H    0.6610    0.3774    0.1377
  H119     H    0.7247    0.3391    0.1886
  O120     O    0.6778    0.6816    0.1580
  H121     H    0.7255    0.7274    0.1358
  H122     H    0.7230    0.6599    0.1890
  O123     O    0.6195    0.4964    0.0939
  H124     H    0.6410    0.5596    0.1158
  H125     H    0.5398    0.4977    0.0943
  O126     O    0.1816    0.8222    0.4080
  H127     H    0.1599    0.7770    0.4390
  H128     H    0.2274    0.7745    0.3858
  O129     O    0.5038   -0.0038    0.3750
  H130     H    0.5010    0.0623    0.3528
  H131     H    0.4377   -0.0010    0.3972
  O132     O    0.2500    0.4962    0.0019
  H133     H    0.2945    0.4990   -0.0312
  H134     H    0.2055    0.5623    0.0005
  O135     O    0.6951    0.0000    0.4406
  H136     H    0.6227    0.0000    0.4239
  H137     H    0.6809    0.0000    0.4798
  O138     O    0.8812    0.3049    0.5000
  H139     H    0.9597    0.3191    0.5000
  H140     H    0.8478    0.3773    0.5000
  O141     O    0.3085    0.0036    0.5562
  H142     H    0.2659   -0.0595    0.5681
  H143     H    0.3733    0.0025    0.5794
  O144     O   -0.0038    0.2500    0.7519
  H145     H    0.0623    0.2945    0.7505
  H146     H   -0.0010    0.2055    0.7188
  O147     O    0.6841    0.3183    0.8441
  H148     H    0.7246    0.3390    0.8113
  H149     H    0.6227    0.2753    0.8304
  O150     O    0.1841    0.1881    0.5909
  H151     H    0.2246    0.1226    0.5805
  H152     H    0.1227    0.1609    0.6123
  O153     O    0.0000    0.7554    0.7500
  H154     H    0.0631    0.7066    0.7500
  H155     H   -0.0631    0.7066    0.7500
  O156     O    0.1816    0.8222    0.5920
  H157     H    0.1599    0.7770    0.5610
  H158     H    0.2274    0.7745    0.6142
  O159     O    0.4964    0.8122    0.6902
  H160     H    0.4977    0.8113    0.7301
  H161     H    0.5596    0.7684    0.6795
  O162     O    0.6124    0.5036    0.9042
  H163     H    0.6588    0.5025    0.9366
  H164     H    0.6361    0.4405    0.8829
  O165     O    0.8161    0.1816    0.9111
  H166     H    0.7715    0.2274    0.8872
  H167     H    0.8780    0.1599    0.8885
  O168     O    0.3184    0.3161    0.6611
  H169     H    0.3401    0.3780    0.6385
  H170     H    0.2726    0.2715    0.6372
  O171     O    0.1855    0.3862    0.7500
  H172     H    0.2287    0.3635    0.7815
  H173     H    0.2287    0.3635    0.7185
  O174     O    0.3159    0.6817    0.6559
  H175     H    0.2754    0.6610    0.6887
  H176     H    0.3773    0.7247    0.6696
  O177     O    0.3161    0.3222    0.8408
  H178     H    0.2715    0.2745    0.8637
  H179     H    0.3780    0.2770    0.8300
  O180     O    0.6915    0.0036    0.5562
  H181     H    0.6267    0.0025    0.5794
  H182     H    0.7341   -0.0595    0.5681
  O183     O    0.5000    0.1855    0.6931
  H184     H    0.4369    0.2287    0.6818
  H185     H    0.5631    0.2287    0.6818
  O186     O    0.8119    0.8183    0.5921
  H187     H    0.8391    0.7753    0.5614
  H188     H    0.8774    0.8390    0.6123
  O189     O    0.5000    0.8145    0.8069
  H190     H    0.4369    0.7713    0.8182
  H191     H    0.5631    0.7713    0.8182
  O192     O    0.8085    0.3876    0.7518
  H193     H    0.7659    0.3639    0.7202
  H194     H    0.8733    0.3412    0.7513
  O195     O    0.3122   -0.0036    0.9402
  H196     H    0.2684    0.0596    0.9295
  H197     H    0.3113   -0.0023    0.9801
  O198     O    0.5000    0.1951    0.8094
  H199     H    0.5000    0.1809    0.7702
  H200     H    0.5000    0.1227    0.8261
  O201     O    0.3184    0.6839    0.8389
  H202     H    0.2726    0.7285    0.8628
  H203     H    0.3401    0.6220    0.8615
  O204     O    0.8876    0.6915    0.5018
  H205     H    0.8639    0.7341    0.4702
  H206     H    0.8412    0.6267    0.5013
  O207     O    0.8159    0.8119    0.9091
  H208     H    0.7754    0.8774    0.9195
  H209     H    0.8773    0.8391    0.8877
  O210     O    0.0036    0.1195    0.6561
  H211     H    0.0023    0.0398    0.6557
  H212     H   -0.0596    0.1410    0.6342
  O213     O    0.8183    0.1841    0.5941
  H214     H    0.8390    0.2246    0.5613
  H215     H    0.7753    0.1227    0.5804
  O216     O    0.8122    0.6195    0.7482
  H217     H    0.8113    0.5398    0.7488
  H218     H    0.7684    0.6410    0.7798
  O219     O    0.7554    0.5000    0.5000
  H220     H    0.7066    0.5000    0.4685
  H221     H    0.7066    0.5000    0.5315
  O222     O   -0.0036    0.8876    0.8458
  H223     H   -0.0025    0.8412    0.8134
  H224     H    0.0595    0.8639    0.8671
  O225     O    0.6816    0.6839    0.8389
  H226     H    0.6599    0.6220    0.8615
  H227     H    0.7274    0.7285    0.8628
  O228     O    0.5000    0.0000    0.6223
  H229     H    0.5000   -0.0631    0.6467
  H230     H    0.5000    0.0631    0.6467
  O231     O    0.0000    0.1188    0.8476
  H232     H    0.0000    0.0403    0.8404
  H233     H    0.0000    0.1522    0.8114
  O234     O    0.1878    0.6195    0.7482
  H235     H    0.2316    0.6410    0.7798
  H236     H    0.1887    0.5398    0.7488
  O237     O    0.3876    0.4964    0.5958
  H238     H    0.3639    0.5595    0.6171
  H239     H    0.3412    0.4975    0.5634
  O240     O    0.3805    0.5036    0.9061
  H241     H    0.4602    0.5023    0.9057
  H242     H    0.3590    0.4404    0.8842
  O243     O    0.1881    0.1817    0.9079
  H244     H    0.1226    0.1610    0.8877
  H245     H    0.1609    0.2247    0.9386
  O246     O   -0.0036    0.8876    0.6542
  H247     H   -0.0025    0.8412    0.6866
  H248     H    0.0595    0.8639    0.6329
  O249     O    0.1188    0.6951    0.5000
  H250     H    0.0403    0.6809    0.5000
  H251     H    0.1522    0.6227    0.5000
  O252     O    0.1138    0.3145    0.5000
  H253     H    0.1365    0.2713    0.4685
  H254     H    0.1365    0.2713    0.5315
  O255     O    0.6816    0.3161    0.6611
  H256     H    0.7274    0.2715    0.6372
  H257     H    0.6599    0.3780    0.6385
  O258     O    0.6778    0.6816    0.6580
  H259     H    0.7255    0.7274    0.6358
  H260     H    0.7230    0.6599    0.6890
  O261     O    0.6195    0.4964    0.5939
  H262     H    0.6410    0.5596    0.6158
  H263     H    0.5398    0.4977    0.5943
  O264     O    0.1817    0.8159    0.9059
  H265     H    0.2247    0.8773    0.9196
  H266     H    0.1610    0.7754    0.9387
  O267     O    0.5038    0.0038    0.8750
  H268     H    0.4377    0.0010    0.8972
  H269     H    0.5010   -0.0623    0.8528
  O270     O    0.2500    0.5038    0.5019
  H271     H    0.2055    0.4377    0.5005
  H272     H    0.2945    0.5010    0.4688
  O273     O    0.6915   -0.0036    0.9438
  H274     H    0.6267   -0.0025    0.9206
  H275     H    0.7341    0.0595    0.9319
 Me276    Me    0.5000    0.5000    0.2500
  O277     O    0.5000    0.6503    0.0000
 CA278    CA    0.5969    0.7169    0.0000
 CB279    CB    0.5637    0.8399    0.0000
 CB280    CB    0.4363    0.8399    0.0000
 CA281    CA    0.4031    0.7169    0.0000
  O282     O    0.7500   -0.0997    0.2500
 CA283    CA    0.8469   -0.0331    0.2500
 CB284    CB    0.8137    0.0899    0.2500
 CB285    CB    0.6863    0.0899    0.2500
 CA286    CA    0.6531   -0.0331    0.2500
  O287     O    0.0000    0.4003    0.8750
 CA288    CA    0.0969    0.4669    0.8750
 CB289    CB    0.0637    0.5899    0.8750
 CB290    CB   -0.0637    0.5899    0.8750
 CA291    CA   -0.0969    0.4669    0.8750
  O292     O    0.0000    0.4003    0.6250
 CA293    CA    0.0969    0.4669    0.6250
 CB294    CB    0.0637    0.5899    0.6250
 CB295    CB   -0.0637    0.5899    0.6250
 CA296    CA   -0.0969    0.4669    0.6250
  O297     O    0.0000    0.4003    0.1250
 CA298    CA    0.0969    0.4669    0.1250
 CB299    CB    0.0637    0.5899    0.1250
 CB300    CB   -0.0637    0.5899    0.1250
 CA301    CA   -0.0969    0.4669    0.1250
  O302     O    0.2500   -0.0997    0.2500
 CA303    CA    0.3469   -0.0331    0.2500
 CB304    CB    0.3137    0.0899    0.2500
 CB305    CB    0.1863    0.0899    0.2500
 CA306    CA    0.1531   -0.0331    0.2500

