data_genice
#
_cell_length_a                12.003488636143597
_cell_length_b                12.003488636143597
_cell_length_c                24.006977272287195
_cell_angle_alpha             90.0
_cell_angle_beta              90.0
_cell_angle_gamma             90.0

_symmetry_cell_setting        'orthorhombic'
_symmetry_space_group_name_H-M   'P 1 '

loop_
  _symmetry_equiv_pos_as_xyz
X,Y,Z

loop_
_atom_site_label
_atom_site_type_symbol
_atom_site_fract_x
_atom_site_fract_y
_atom_site_fract_z
    O0     O    0.8805    0.3122   -0.0018
    H1     H    0.8590    0.2684    0.0298
    H2     H    0.9602    0.3113   -0.0012
    O3     O    0.3085    0.0036    0.0562
    H4     H    0.3733    0.0025    0.0794
    H5     H    0.2659   -0.0595    0.0681
    O6     O   -0.0038    0.2500    0.2519
    H7     H    0.0623    0.2945    0.2505
    H8     H   -0.0010    0.2055    0.2188
    O9     O    0.6816    0.3161    0.3389
   H10     H    0.6599    0.3780    0.3615
   H11     H    0.7274    0.2715    0.3628
   O12     O    0.1817    0.1841    0.0941
   H13     H    0.1610    0.2246    0.0613
   H14     H    0.2247    0.1227    0.0804
   O15     O   -0.0038    0.7500    0.2481
   H16     H    0.0623    0.7055    0.2495
   H17     H   -0.0010    0.7945    0.2812
   O18     O    0.1881    0.8183    0.0921
   H19     H    0.1226    0.8390    0.1123
   H20     H    0.1609    0.7753    0.0614
   O21     O    0.5000    0.8145    0.1931
   H22     H    0.4369    0.7713    0.1818
   H23     H    0.5631    0.7713    0.1818
   O24     O    0.6195    0.4964    0.4061
   H25     H    0.5398    0.4977    0.4057
   H26     H    0.6410    0.5596    0.3842
   O27     O    0.8119    0.1817    0.4079
   H28     H    0.8774    0.1610    0.3877
   H29     H    0.8391    0.2247    0.4386
   O30     O    0.3161    0.3222    0.1592
   H31     H    0.3780    0.2770    0.1700
   H32     H    0.2715    0.2745    0.1363
   O33     O    0.1878    0.3805    0.2518
   H34     H    0.2316    0.3590    0.2202
   H35     H    0.1887    0.4602    0.2512
   O36     O    0.3184    0.6839    0.1611
   H37     H    0.3401    0.6220    0.1385
   H38     H    0.2726    0.7285    0.1372
   O39     O    0.3222    0.3184    0.3420
   H40     H    0.2745    0.2726    0.3642
   H41     H    0.2770    0.3401    0.3110
   O42     O    0.6878   -0.0036    0.0598
   H43     H    0.7316    0.0596    0.0705
   H44     H    0.6887   -0.0023    0.0199
   O45     O    0.5000    0.1951    0.1906
   H46     H    0.5000    0.1809    0.2298
   H47     H    0.5000    0.1227    0.1739
   O48     O    0.8222    0.8161    0.0908
   H49     H    0.7745    0.7715    0.1137
   H50     H    0.7770    0.8780    0.0800
   O51     O    0.4964    0.8122    0.3098
   H52     H    0.4977    0.8113    0.2699
   H53     H    0.5596    0.7684    0.3205
   O54     O    0.8085    0.3876    0.2482
   H55     H    0.7659    0.3639    0.2798
   H56     H    0.8733    0.3412    0.2487
   O57     O    0.3085    0.0036    0.4438
   H58     H    0.2659   -0.0595    0.4319
   H59     H    0.3733    0.0025    0.4206
   O60     O    0.5000    0.1855    0.3069
   H61     H    0.4369    0.2287    0.3182
   H62     H    0.5631    0.2287    0.3182
   O63     O    0.3119    0.6841    0.3409
   H64     H    0.3774    0.7246    0.3305
   H65     H    0.3391    0.6227    0.3623
   O66     O    0.8876    0.6915   -0.0018
   H67     H    0.8639    0.7341    0.0298
   H68     H    0.8412    0.6267   -0.0013
   O69     O    0.8183    0.8159    0.4059
   H70     H    0.8390    0.7754    0.4387
   H71     H    0.7753    0.8773    0.4196
   O72     O   -0.0036    0.1195    0.1561
   H73     H    0.0596    0.1410    0.1342
   H74     H   -0.0023    0.0398    0.1557
   O75     O    0.8161    0.1816    0.0889
   H76     H    0.8780    0.1599    0.1115
   H77     H    0.7715    0.2274    0.1128
   O78     O    0.8049    0.6188    0.2500
   H79     H    0.8191    0.5403    0.2500
   H80     H    0.8773    0.6522    0.2500
   O81     O    0.7500    0.5038   -0.0019
   H82     H    0.7945    0.4377   -0.0005
   H83     H    0.7055    0.5010    0.0312
   O84     O   -0.0000    0.8862    0.3427
   H85     H    0.0631    0.8635    0.3643
   H86     H   -0.0631    0.8635    0.3643
   O87     O    0.6778    0.6816    0.3420
   H88     H    0.7230    0.6599    0.3110
   H89     H    0.7255    0.7274    0.3642
   O90     O    0.4962    0.0038    0.1250
   H91     H    0.5623    0.0010    0.1028
   H92     H    0.4990   -0.0623    0.1472
   O93     O    0.0000    0.1188    0.3476
   H94     H    0.0000    0.1522    0.3114
   H95     H    0.0000    0.0403    0.3404
   O96     O    0.1855    0.6138    0.2500
   H97     H    0.2287    0.6365    0.2815
   H98     H    0.2287    0.6365    0.2185
   O99     O    0.3876    0.5036    0.0958
  H100     H    0.3639    0.4405    0.1171
  H101     H    0.3412    0.5025    0.0634
  O102     O    0.3876    0.5036    0.4042
  H103     H    0.3639    0.4405    0.3829
  H104     H    0.3412    0.5025    0.4366
  O105     O    0.1841    0.1881    0.4091
  H106     H    0.2246    0.1226    0.4195
  H107     H    0.1227    0.1609    0.3877
  O108     O    0.0036    0.8876    0.1542
  H109     H    0.0025    0.8412    0.1866
  H110     H   -0.0595    0.8639    0.1329
  O111     O    0.1195    0.6878    0.0018
  H112     H    0.1410    0.7316   -0.0298
  H113     H    0.0398    0.6887    0.0012
  O114     O    0.1124    0.3085    0.0018
  H115     H    0.1361    0.2659   -0.0298
  H116     H    0.1588    0.3733    0.0013
  O117     O    0.6841    0.3183    0.1559
  H118     H    0.6227    0.2753    0.1696
  H119     H    0.7246    0.3390    0.1887
  O120     O    0.6817    0.6881    0.1579
  H121     H    0.6610    0.6226    0.1377
  H122     H    0.7247    0.6609    0.1886
  O123     O    0.6195    0.5036    0.0939
  H124     H    0.5398    0.5023    0.0943
  H125     H    0.6410    0.4404    0.1158
  O126     O    0.1816    0.8222    0.4080
  H127     H    0.1599    0.7770    0.4390
  H128     H    0.2274    0.7745    0.3858
  O129     O    0.5000    0.0000    0.3777
  H130     H    0.5000    0.0631    0.3533
  H131     H    0.5000   -0.0631    0.3533
  O132     O    0.2500    0.4962    0.0019
  H133     H    0.2945    0.4990   -0.0312
  H134     H    0.2055    0.5623    0.0005
  O135     O    0.6915   -0.0036    0.4438
  H136     H    0.7341    0.0595    0.4319
  H137     H    0.6267   -0.0025    0.4206
  O138     O    0.8876    0.3085    0.4982
  H139     H    0.8639    0.2659    0.5298
  H140     H    0.8412    0.3733    0.4987
  O141     O    0.3122   -0.0036    0.5598
  H142     H    0.2684    0.0596    0.5705
  H143     H    0.3113   -0.0023    0.5199
  O144     O    0.0000    0.2446    0.7500
  H145     H    0.0631    0.2934    0.7500
  H146     H   -0.0631    0.2934    0.7500
  O147     O    0.6817    0.3119    0.8421
  H148     H    0.7247    0.3391    0.8114
  H149     H    0.6610    0.3774    0.8623
  O150     O    0.1816    0.1778    0.5920
  H151     H    0.2274    0.2255    0.6142
  H152     H    0.1599    0.2230    0.5610
  O153     O   -0.0038    0.7500    0.7481
  H154     H    0.0623    0.7055    0.7495
  H155     H   -0.0010    0.7945    0.7812
  O156     O    0.1841    0.8119    0.5909
  H157     H    0.1227    0.8391    0.6123
  H158     H    0.2246    0.8774    0.5805
  O159     O    0.4964    0.8122    0.6902
  H160     H    0.5596    0.7684    0.6795
  H161     H    0.4977    0.8113    0.7301
  O162     O    0.6124    0.4964    0.9042
  H163     H    0.6588    0.4975    0.9366
  H164     H    0.6361    0.5595    0.8829
  O165     O    0.8184    0.1778    0.9080
  H166     H    0.7726    0.2255    0.8858
  H167     H    0.8401    0.2230    0.9390
  O168     O    0.3119    0.3159    0.6591
  H169     H    0.3774    0.2754    0.6695
  H170     H    0.3391    0.3773    0.6377
  O171     O    0.1855    0.3862    0.7500
  H172     H    0.2287    0.3635    0.7185
  H173     H    0.2287    0.3635    0.7815
  O174     O    0.3161    0.6778    0.6592
  H175     H    0.2715    0.7255    0.6363
  H176     H    0.3780    0.7230    0.6700
  O177     O    0.3119    0.3159    0.8409
  H178     H    0.3774    0.2754    0.8305
  H179     H    0.3391    0.3773    0.8623
  O180     O    0.6951    0.0000    0.5594
  H181     H    0.6227    0.0000    0.5761
  H182     H    0.6809    0.0000    0.5202
  O183     O    0.5000    0.1951    0.6906
  H184     H    0.5000    0.1809    0.7298
  H185     H    0.5000    0.1227    0.6739
  O186     O    0.8159    0.8119    0.5909
  H187     H    0.8773    0.8391    0.6123
  H188     H    0.7754    0.8774    0.5805
  O189     O    0.5036    0.8085    0.8062
  H190     H    0.5025    0.8733    0.8294
  H191     H    0.4405    0.7659    0.8181
  O192     O    0.8122    0.3805    0.7518
  H193     H    0.8113    0.4602    0.7512
  H194     H    0.7684    0.3590    0.7202
  O195     O    0.3122   -0.0036    0.9402
  H196     H    0.3113   -0.0023    0.9801
  H197     H    0.2684    0.0596    0.9295
  O198     O    0.4964    0.1915    0.8062
  H199     H    0.5595    0.2341    0.8181
  H200     H    0.4975    0.1267    0.8294
  O201     O    0.3222    0.6816    0.8420
  H202     H    0.2745    0.7274    0.8642
  H203     H    0.2770    0.6599    0.8110
  O204     O    0.8876    0.6915    0.4982
  H205     H    0.8412    0.6267    0.4987
  H206     H    0.8639    0.7341    0.5298
  O207     O    0.8184    0.8222    0.9080
  H208     H    0.8401    0.7770    0.9390
  H209     H    0.7726    0.7745    0.8858
  O210     O   -0.0036    0.1124    0.6542
  H211     H    0.0595    0.1361    0.6329
  H212     H   -0.0025    0.1588    0.6866
  O213     O    0.8159    0.1881    0.5909
  H214     H    0.8773    0.1609    0.6123
  H215     H    0.7754    0.1226    0.5805
  O216     O    0.8085    0.6124    0.7518
  H217     H    0.7659    0.6361    0.7202
  H218     H    0.8733    0.6588    0.7513
  O219     O    0.7554    0.5000    0.5000
  H220     H    0.7066    0.5000    0.5315
  H221     H    0.7066    0.5000    0.4685
  O222     O    0.0036    0.8805    0.8439
  H223     H   -0.0596    0.8590    0.8658
  H224     H    0.0023    0.9602    0.8443
  O225     O    0.6841    0.6817    0.8441
  H226     H    0.6227    0.7247    0.8304
  H227     H    0.7246    0.6610    0.8113
  O228     O    0.5038    0.0038    0.6250
  H229     H    0.4377    0.0010    0.6028
  H230     H    0.5010   -0.0623    0.6472
  O231     O    0.0036    0.1124    0.8458
  H232     H   -0.0595    0.1361    0.8671
  H233     H    0.0025    0.1588    0.8134
  O234     O    0.1878    0.6195    0.7518
  H235     H    0.2316    0.6410    0.7202
  H236     H    0.1887    0.5398    0.7512
  O237     O    0.3876    0.4964    0.5958
  H238     H    0.3639    0.5595    0.6171
  H239     H    0.3412    0.4975    0.5634
  O240     O    0.3805    0.4964    0.9061
  H241     H    0.3590    0.5596    0.8842
  H242     H    0.4602    0.4977    0.9057
  O243     O    0.1839    0.1816    0.9111
  H244     H    0.2285    0.2274    0.8872
  H245     H    0.1220    0.1599    0.8885
  O246     O    0.0000    0.8812    0.6524
  H247     H    0.0000    0.8478    0.6886
  H248     H    0.0000    0.9597    0.6596
  O249     O    0.1195    0.6878    0.4982
  H250     H    0.1410    0.7316    0.5298
  H251     H    0.0398    0.6887    0.4988
  O252     O    0.1195    0.3122    0.5018
  H253     H    0.1410    0.2684    0.4702
  H254     H    0.0398    0.3113    0.5012
  O255     O    0.6839    0.3222    0.6592
  H256     H    0.6220    0.2770    0.6700
  H257     H    0.7285    0.2745    0.6363
  O258     O    0.6816    0.6839    0.6611
  H259     H    0.6599    0.6220    0.6385
  H260     H    0.7274    0.7285    0.6372
  O261     O    0.6195    0.5036    0.5939
  H262     H    0.5398    0.5023    0.5943
  H263     H    0.6410    0.4404    0.6158
  O264     O    0.1841    0.8119    0.9091
  H265     H    0.1227    0.8391    0.8877
  H266     H    0.2246    0.8774    0.9195
  O267     O    0.5000    0.0000    0.8723
  H268     H    0.5631    0.0000    0.8967
  H269     H    0.4369    0.0000    0.8967
  O270     O    0.2554    0.5000    0.5000
  H271     H    0.2066    0.4369    0.5000
  H272     H    0.2066    0.5631    0.5000
  O273     O    0.6855   -0.0000    0.9431
  H274     H    0.7287    0.0631    0.9318
  H275     H    0.7287   -0.0631    0.9318
 Me276    Me    0.5000    0.5000    0.2500
  O277     O    0.0000    0.4003    0.8750
 CA278    CA    0.0969    0.4669    0.8750
 CB279    CB    0.0637    0.5899    0.8750
 CB280    CB   -0.0637    0.5899    0.8750
 CA281    CA   -0.0969    0.4669    0.8750
  O282     O    0.0000    0.4003    0.3750
 CA283    CA    0.0969    0.4669    0.3750
 CB284    CB    0.0637    0.5899    0.3750
 CB285    CB   -0.0637    0.5899    0.3750
 CA286    CA   -0.0969    0.4669    0.3750
  O287     O    0.5000    0.1503    0.0000
 CA288    CA    0.5969    0.2169    0.0000
 CB289    CB    0.5637    0.3399    0.0000
 CB290    CB    0.4363    0.3399    0.0000
 CA291    CA    0.4031    0.2169    0.0000
  O292     O    0.7500   -0.0997    0.2500
 CA293    CA    0.8469   -0.0331    0.2500
 CB294    CB    0.8137    0.0899    0.2500
 CB295    CB    0.6863    0.0899    0.2500
 CA296    CA    0.6531   -0.0331    0.2500
  O297     O    0.5000    0.6503    0.0000
 CA298    CA    0.5969    0.7169    0.0000
 CB299    CB    0.5637    0.8399    0.0000
 CB300    CB    0.4363    0.8399    0.0000
 CA301    CA    0.4031    0.7169    0.0000
  O302     O    0.0000    0.4003    0.1250
 CA303    CA    0.0969    0.4669    0.1250
 CB304    CB    0.0637    0.5899    0.1250
 CB305    CB   -0.0637    0.5899    0.1250
 CA306    CA   -0.0969    0.4669    0.1250

