data_genice
#
_cell_length_a                12.003488636143597
_cell_length_b                12.003488636143597
_cell_length_c                24.006977272287195
_cell_angle_alpha             90.0
_cell_angle_beta              90.0
_cell_angle_gamma             90.0

_symmetry_cell_setting        'orthorhombic'
_symmetry_space_group_name_H-M   'P 1 '

loop_
  _symmetry_equiv_pos_as_xyz
X,Y,Z

loop_
_atom_site_label
_atom_site_type_symbol
_atom_site_fract_x
_atom_site_fract_y
_atom_site_fract_z
    O0     O    0.8876    0.3085   -0.0018
    H1     H    0.8412    0.3733   -0.0013
    H2     H    0.8639    0.2659    0.0298
    O3     O    0.3122   -0.0036    0.0598
    H4     H    0.3113   -0.0023    0.0199
    H5     H    0.2684    0.0596    0.0705
    O6     O   -0.0038    0.2500    0.2519
    H7     H    0.0623    0.2945    0.2505
    H8     H   -0.0010    0.2055    0.2188
    O9     O    0.6839    0.3222    0.3408
   H10     H    0.7285    0.2745    0.3637
   H11     H    0.6220    0.2770    0.3300
   O12     O    0.1816    0.1778    0.0920
   H13     H    0.1599    0.2230    0.0610
   H14     H    0.2274    0.2255    0.1142
   O15     O    0.0038    0.7500    0.2481
   H16     H   -0.0623    0.7055    0.2495
   H17     H    0.0010    0.7945    0.2812
   O18     O    0.1778    0.8161    0.0908
   H19     H    0.2255    0.7715    0.1137
   H20     H    0.2230    0.8780    0.0800
   O21     O    0.5000    0.8145    0.1931
   H22     H    0.5631    0.7713    0.1818
   H23     H    0.4369    0.7713    0.1818
   O24     O    0.6124    0.5036    0.4042
   H25     H    0.6361    0.4405    0.3829
   H26     H    0.6588    0.5025    0.4366
   O27     O    0.8119    0.1817    0.4079
   H28     H    0.8391    0.2247    0.4386
   H29     H    0.8774    0.1610    0.3877
   O30     O    0.3119    0.3159    0.1591
   H31     H    0.3391    0.3773    0.1377
   H32     H    0.3774    0.2754    0.1695
   O33     O    0.1855    0.3862    0.2500
   H34     H    0.2287    0.3635    0.2815
   H35     H    0.2287    0.3635    0.2185
   O36     O    0.3183    0.6881    0.1579
   H37     H    0.2753    0.6609    0.1886
   H38     H    0.3390    0.6226    0.1377
   O39     O    0.3119    0.3159    0.3409
   H40     H    0.3774    0.2754    0.3305
   H41     H    0.3391    0.3773    0.3623
   O42     O    0.6915    0.0036    0.0562
   H43     H    0.6267    0.0025    0.0794
   H44     H    0.7341   -0.0595    0.0681
   O45     O    0.4964    0.1915    0.1938
   H46     H    0.4975    0.1267    0.1706
   H47     H    0.5595    0.2341    0.1819
   O48     O    0.8119    0.8183    0.0921
   H49     H    0.8391    0.7753    0.0614
   H50     H    0.8774    0.8390    0.1123
   O51     O    0.5036    0.8122    0.3098
   H52     H    0.5023    0.8113    0.2699
   H53     H    0.4404    0.7684    0.3205
   O54     O    0.8085    0.3876    0.2482
   H55     H    0.7659    0.3639    0.2798
   H56     H    0.8733    0.3412    0.2487
   O57     O    0.3049    0.0000    0.4406
   H58     H    0.3773    0.0000    0.4239
   H59     H    0.3191    0.0000    0.4798
   O60     O    0.5000    0.1951    0.3094
   H61     H    0.5000    0.1809    0.2702
   H62     H    0.5000    0.1227    0.3261
   O63     O    0.3183    0.6881    0.3421
   H64     H    0.3390    0.6226    0.3623
   H65     H    0.2753    0.6609    0.3114
   O66     O    0.8812    0.6951    0.0000
   H67     H    0.8478    0.6227    0.0000
   H68     H    0.9597    0.6809    0.0000
   O69     O    0.8161    0.8184    0.4111
   H70     H    0.7715    0.7726    0.3872
   H71     H    0.8780    0.8401    0.3885
   O72     O   -0.0036    0.1195    0.1561
   H73     H   -0.0023    0.0398    0.1557
   H74     H    0.0596    0.1410    0.1342
   O75     O    0.8159    0.1881    0.0909
   H76     H    0.7754    0.1226    0.0805
   H77     H    0.8773    0.1609    0.1123
   O78     O    0.8122    0.6195    0.2482
   H79     H    0.7684    0.6410    0.2798
   H80     H    0.8113    0.5398    0.2488
   O81     O    0.7554    0.5000    0.0000
   H82     H    0.7066    0.5000   -0.0315
   H83     H    0.7066    0.5000    0.0315
   O84     O   -0.0036    0.8805    0.3439
   H85     H    0.0596    0.8590    0.3658
   H86     H   -0.0023    0.9602    0.3443
   O87     O    0.6881    0.6841    0.3409
   H88     H    0.6609    0.6227    0.3623
   H89     H    0.6226    0.7246    0.3305
   O90     O    0.5038    0.0038    0.1250
   H91     H    0.5010   -0.0623    0.1472
   H92     H    0.4377    0.0010    0.1028
   O93     O   -0.0036    0.1124    0.3458
   H94     H    0.0595    0.1361    0.3671
   H95     H   -0.0025    0.1588    0.3134
   O96     O    0.1951    0.6188    0.2500
   H97     H    0.1227    0.6522    0.2500
   H98     H    0.1809    0.5403    0.2500
   O99     O    0.3812    0.5000    0.0976
  H100     H    0.4597    0.5000    0.0904
  H101     H    0.3478    0.5000    0.0614
  O102     O    0.3812    0.5000    0.4024
  H103     H    0.4597    0.5000    0.4096
  H104     H    0.3478    0.5000    0.4386
  O105     O    0.1778    0.1839    0.4092
  H106     H    0.2230    0.1220    0.4200
  H107     H    0.2255    0.2285    0.3863
  O108     O   -0.0036    0.8876    0.1542
  H109     H   -0.0025    0.8412    0.1866
  H110     H    0.0595    0.8639    0.1329
  O111     O    0.1138    0.6855   -0.0000
  H112     H    0.1365    0.7287   -0.0315
  H113     H    0.1365    0.7287    0.0315
  O114     O    0.1195    0.3122    0.0018
  H115     H    0.1410    0.2684   -0.0298
  H116     H    0.0398    0.3113    0.0012
  O117     O    0.6778    0.3184    0.1580
  H118     H    0.7230    0.3401    0.1890
  H119     H    0.7255    0.2726    0.1358
  O120     O    0.6778    0.6816    0.1580
  H121     H    0.7230    0.6599    0.1890
  H122     H    0.7255    0.7274    0.1358
  O123     O    0.6138    0.5000    0.0927
  H124     H    0.6365    0.4369    0.1143
  H125     H    0.6365    0.5631    0.1143
  O126     O    0.1778    0.8161    0.4092
  H127     H    0.2255    0.7715    0.3863
  H128     H    0.2230    0.8780    0.4200
  O129     O    0.4962    0.0038    0.3750
  H130     H    0.5623    0.0010    0.3972
  H131     H    0.4990   -0.0623    0.3528
  O132     O    0.2554    0.5000    0.0000
  H133     H    0.2066    0.5631    0.0000
  H134     H    0.2066    0.4369    0.0000
  O135     O    0.6855   -0.0000    0.4431
  H136     H    0.7287    0.0631    0.4318
  H137     H    0.7287   -0.0631    0.4318
  O138     O    0.8805    0.3122    0.4982
  H139     H    0.8590    0.2684    0.5298
  H140     H    0.9602    0.3113    0.4988
  O141     O    0.3145    0.0000    0.5569
  H142     H    0.2713   -0.0631    0.5682
  H143     H    0.2713    0.0631    0.5682
  O144     O    0.0000    0.2446    0.7500
  H145     H   -0.0631    0.2934    0.7500
  H146     H    0.0631    0.2934    0.7500
  O147     O    0.6881    0.3159    0.8409
  H148     H    0.6609    0.3773    0.8623
  H149     H    0.6226    0.2754    0.8305
  O150     O    0.1881    0.1817    0.5921
  H151     H    0.1609    0.2247    0.5614
  H152     H    0.1226    0.1610    0.6123
  O153     O    0.0038    0.7500    0.7481
  H154     H   -0.0623    0.7055    0.7495
  H155     H    0.0010    0.7945    0.7812
  O156     O    0.1881    0.8183    0.5921
  H157     H    0.1609    0.7753    0.5614
  H158     H    0.1226    0.8390    0.6123
  O159     O    0.5000    0.8049    0.6906
  H160     H    0.5000    0.8191    0.7298
  H161     H    0.5000    0.8773    0.6739
  O162     O    0.6195    0.4964    0.9061
  H163     H    0.6410    0.5596    0.8842
  H164     H    0.5398    0.4977    0.9057
  O165     O    0.8184    0.1778    0.9080
  H166     H    0.7726    0.2255    0.8858
  H167     H    0.8401    0.2230    0.9390
  O168     O    0.3184    0.3161    0.6611
  H169     H    0.3401    0.3780    0.6385
  H170     H    0.2726    0.2715    0.6372
  O171     O    0.1878    0.3805    0.7518
  H172     H    0.1887    0.4602    0.7512
  H173     H    0.2316    0.3590    0.7202
  O174     O    0.3161    0.6778    0.6592
  H175     H    0.3780    0.7230    0.6700
  H176     H    0.2715    0.7255    0.6363
  O177     O    0.3159    0.3183    0.8441
  H178     H    0.3773    0.2753    0.8304
  H179     H    0.2754    0.3390    0.8113
  O180     O    0.6951    0.0000    0.5594
  H181     H    0.6809    0.0000    0.5202
  H182     H    0.6227    0.0000    0.5761
  O183     O    0.5000    0.1855    0.6931
  H184     H    0.5631    0.2287    0.6818
  H185     H    0.4369    0.2287    0.6818
  O186     O    0.8222    0.8161    0.5908
  H187     H    0.7770    0.8780    0.5800
  H188     H    0.7745    0.7715    0.6137
  O189     O    0.5036    0.8085    0.8062
  H190     H    0.5025    0.8733    0.8294
  H191     H    0.4405    0.7659    0.8181
  O192     O    0.8145    0.3862    0.7500
  H193     H    0.7713    0.3635    0.7185
  H194     H    0.7713    0.3635    0.7815
  O195     O    0.3145   -0.0000    0.9431
  H196     H    0.2713   -0.0631    0.9318
  H197     H    0.2713    0.0631    0.9318
  O198     O    0.5000    0.1951    0.8094
  H199     H    0.5000    0.1227    0.8261
  H200     H    0.5000    0.1809    0.7702
  O201     O    0.3183    0.6881    0.8421
  H202     H    0.3390    0.6226    0.8623
  H203     H    0.2753    0.6609    0.8114
  O204     O    0.8862    0.6855    0.5000
  H205     H    0.8635    0.7287    0.4685
  H206     H    0.8635    0.7287    0.5315
  O207     O    0.8183    0.8159    0.9059
  H208     H    0.7753    0.8773    0.9196
  H209     H    0.8390    0.7754    0.9387
  O210     O    0.0000    0.1188    0.6524
  H211     H    0.0000    0.0403    0.6596
  H212     H    0.0000    0.1522    0.6886
  O213     O    0.8159    0.1881    0.5909
  H214     H    0.7754    0.1226    0.5805
  H215     H    0.8773    0.1609    0.6123
  O216     O    0.8122    0.6195    0.7482
  H217     H    0.7684    0.6410    0.7798
  H218     H    0.8113    0.5398    0.7488
  O219     O    0.7446    0.5000    0.5000
  H220     H    0.7934    0.5631    0.5000
  H221     H    0.7934    0.4369    0.5000
  O222     O    0.0036    0.8805    0.8439
  H223     H   -0.0596    0.8590    0.8658
  H224     H    0.0023    0.9602    0.8443
  O225     O    0.6839    0.6778    0.8408
  H226     H    0.7285    0.7255    0.8637
  H227     H    0.6220    0.7230    0.8300
  O228     O    0.5038   -0.0038    0.6250
  H229     H    0.5010    0.0623    0.6472
  H230     H    0.4377   -0.0010    0.6028
  O231     O    0.0036    0.1124    0.8458
  H232     H   -0.0595    0.1361    0.8671
  H233     H    0.0025    0.1588    0.8134
  O234     O    0.1915    0.6124    0.7518
  H235     H    0.2341    0.6361    0.7202
  H236     H    0.1267    0.6588    0.7513
  O237     O    0.3805    0.4964    0.5939
  H238     H    0.4602    0.4977    0.5943
  H239     H    0.3590    0.5596    0.6158
  O240     O    0.3876    0.5036    0.9042
  H241     H    0.3639    0.4405    0.8829
  H242     H    0.3412    0.5025    0.9366
  O243     O    0.1839    0.1816    0.9111
  H244     H    0.2285    0.2274    0.8872
  H245     H    0.1220    0.1599    0.8885
  O246     O    0.0036    0.8876    0.6542
  H247     H   -0.0595    0.8639    0.6329
  H248     H    0.0025    0.8412    0.6866
  O249     O    0.1195    0.6878    0.5018
  H250     H    0.1410    0.7316    0.4702
  H251     H    0.0398    0.6887    0.5012
  O252     O    0.1124    0.3085    0.5018
  H253     H    0.1588    0.3733    0.5013
  H254     H    0.1361    0.2659    0.4702
  O255     O    0.6816    0.3161    0.6611
  H256     H    0.7274    0.2715    0.6372
  H257     H    0.6599    0.3780    0.6385
  O258     O    0.6841    0.6817    0.6559
  H259     H    0.6227    0.7247    0.6696
  H260     H    0.7246    0.6610    0.6887
  O261     O    0.6124    0.4964    0.5958
  H262     H    0.6588    0.4975    0.5634
  H263     H    0.6361    0.5595    0.6171
  O264     O    0.1839    0.8184    0.9111
  H265     H    0.2285    0.7726    0.8872
  H266     H    0.1220    0.8401    0.8885
  O267     O    0.5000    0.0000    0.8723
  H268     H    0.5631    0.0000    0.8967
  H269     H    0.4369    0.0000    0.8967
  O270     O    0.2500    0.4962    0.4981
  H271     H    0.2055    0.5623    0.4995
  H272     H    0.2945    0.4990    0.5312
  O273     O    0.6878   -0.0036    0.9402
  H274     H    0.7316    0.0596    0.9295
  H275     H    0.6887   -0.0023    0.9801
 Me276    Me    0.5000    0.5000    0.2500
  O277     O    0.5000    0.6503    0.0000
 CA278    CA    0.5969    0.7169    0.0000
 CB279    CB    0.5637    0.8399    0.0000
 CB280    CB    0.4363    0.8399    0.0000
 CA281    CA    0.4031    0.7169    0.0000
  O282     O    0.0000    0.4003    0.3750
 CA283    CA    0.0969    0.4669    0.3750
 CB284    CB    0.0637    0.5899    0.3750
 CB285    CB   -0.0637    0.5899    0.3750
 CA286    CA   -0.0969    0.4669    0.3750
  O287     O    0.2500   -0.0997    0.2500
 CA288    CA    0.3469   -0.0331    0.2500
 CB289    CB    0.3137    0.0899    0.2500
 CB290    CB    0.1863    0.0899    0.2500
 CA291    CA    0.1531   -0.0331    0.2500
  O292     O    0.5000    0.6503    0.5000
 CA293    CA    0.5969    0.7169    0.5000
 CB294    CB    0.5637    0.8399    0.5000
 CB295    CB    0.4363    0.8399    0.5000
 CA296    CA    0.4031    0.7169    0.5000
  O297     O    0.5000    0.1503    0.0000
 CA298    CA    0.5969    0.2169    0.0000
 CB299    CB    0.5637    0.3399    0.0000
 CB300    CB    0.4363    0.3399    0.0000
 CA301    CA    0.4031    0.2169    0.0000
  O302     O    0.0000    0.4003    0.1250
 CA303    CA    0.0969    0.4669    0.1250
 CB304    CB    0.0637    0.5899    0.1250
 CB305    CB   -0.0637    0.5899    0.1250
 CA306    CA   -0.0969    0.4669    0.1250

