data_genice
#
_cell_length_a                17.120977156117426
_cell_length_b                17.120977156117426
_cell_length_c                34.24195431223485
_cell_angle_alpha             90.0
_cell_angle_beta              90.0
_cell_angle_gamma             90.0

_symmetry_cell_setting        'orthorhombic'
_symmetry_space_group_name_H-M   'P 1 '

loop_
  _symmetry_equiv_pos_as_xyz
X,Y,Z

loop_
_atom_site_label
_atom_site_type_symbol
_atom_site_fract_x
_atom_site_fract_y
_atom_site_fract_z
    O0     O    0.3213    0.9325    0.0613
    H1     H    0.3087    0.9449    0.0348
    H2     H    0.2741    0.9113    0.0718
    O3     O    0.9355    0.6304    0.2158
    H4     H    0.9124    0.6089    0.2388
    H5     H    0.8946    0.6295    0.1967
    O6     O    0.9287    0.9325    0.0637
    H7     H    0.9759    0.9113    0.0532
    H8     H    0.9413    0.9449    0.0902
    O9     O    0.3726    0.6825    0.0893
   H10     H    0.3937    0.6613    0.1130
   H11     H    0.3196    0.6949    0.0956
   O12     O    0.3164    0.6239    0.2168
   H13     H    0.3560    0.6220    0.1970
   H14     H    0.3052    0.5703    0.2224
   O15     O    0.8213    0.4325    0.0613
   H16     H    0.8087    0.4449    0.0348
   H17     H    0.7741    0.4113    0.0718
   O18     O    0.8750    0.3750    0.4394
   H19     H    0.9063    0.4063    0.4223
   H20     H    0.8437    0.3437    0.4223
   O21     O    0.3164    0.6261    0.4082
   H22     H    0.3052    0.6797    0.4026
   H23     H    0.3560    0.6280    0.4280
   O24     O    0.4336    0.1239    0.4082
   H25     H    0.4448    0.0703    0.4026
   H26     H    0.3940    0.1220    0.4280
   O27     O    0.2205    0.2205    0.3584
   H28     H    0.1878    0.1878    0.3427
   H29     H    0.2073    0.2073    0.3847
   O30     O    0.6321    0.4302    0.4651
   H31     H    0.6062    0.4148    0.4887
   H32     H    0.6062    0.4773    0.4574
   O33     O    0.6226    0.4325    0.1607
   H34     H    0.5696    0.4449    0.1544
   H35     H    0.6437    0.4113    0.1370
   O36     O    0.1274    0.8213    0.4088
   H37     H    0.1063    0.7741    0.4194
   H38     H    0.1804    0.8087    0.4026
   O39     O    0.2795    0.7795    0.3916
   H40     H    0.3122    0.8122    0.4073
   H41     H    0.2927    0.7927    0.3653
   O42     O    0.4302    0.4302    0.0660
   H43     H    0.4148    0.4773    0.0531
   H44     H    0.4773    0.4148    0.0531
   O45     O    0.2195    0.0345    0.2673
   H46     H    0.2058    0.0436    0.2405
   H47     H    0.2058   -0.0189    0.2718
   O48     O    0.6179    0.8198    0.4651
   H49     H    0.6438    0.8352    0.4887
   H50     H    0.6438    0.7727    0.4574
   O51     O    0.1855    0.8804    0.2842
   H52     H    0.1624    0.8589    0.2612
   H53     H    0.1446    0.8795    0.3033
   O54     O    0.1855    0.0685    0.1902
   H55     H    0.1446    0.1065    0.1898
   H56     H    0.1624    0.0224    0.1795
   O57     O    0.4705    0.4705    0.1416
   H58     H    0.4573    0.4573    0.1153
   H59     H    0.4378    0.4378    0.1573
   O60     O    0.9315    0.1196    0.1572
   H61     H    0.8935    0.1205    0.1777
   H62     H    0.9776    0.1411    0.1688
   O63     O    0.8750    0.8712    0.1875
   H64     H    0.9063    0.9054    0.1719
   H65     H    0.8437    0.9054    0.2031
   O66     O    0.1304    0.4315    0.2178
   H67     H    0.1089    0.4776    0.2062
   H68     H    0.1295    0.3935    0.1973
   O69     O    0.1836    0.8739    0.0918
   H70     H    0.1440    0.8720    0.0720
   H71     H    0.1948    0.8203    0.0974
   O72     O    0.4355    0.9315    0.3152
   H73     H    0.4124    0.9776    0.3045
   H74     H    0.3946    0.8935    0.3148
   O75     O    0.1239    0.3164    0.4668
   H76     H    0.0703    0.3052    0.4724
   H77     H    0.1220    0.3560    0.4470
   O78     O    0.6855    0.0685    0.4402
   H79     H    0.6624    0.0224    0.4295
   H80     H    0.6446    0.1065    0.4398
   O81     O    0.8185    0.8145    0.0652
   H82     H    0.8565    0.8554    0.0648
   H83     H    0.7724    0.8376    0.0545
   O84     O    0.8774    0.0675    0.3393
   H85     H    0.8563    0.0887    0.3630
   H86     H    0.9304    0.0551    0.3456
   O87     O    0.9655    0.9655    0.1403
   H88     H    1.0189    0.9564    0.1471
   H89     H    0.9564    1.0189    0.1471
   O90     O    0.0664    0.6836    0.4381
   H91     H    0.0552    0.6948    0.4649
   H92     H    0.1060    0.6440    0.4390
   O93     O    0.7168    0.7205    0.3603
   H94     H    0.6854    0.6878    0.3439
   H95     H    0.7695    0.7073    0.3536
   O96     O    0.8696    0.1855    0.0908
   H97     H    0.8705    0.1446    0.0717
   H98     H    0.8911    0.1624    0.1138
   O99     O    0.5295    0.5332    0.3603
  H100     H    0.5622    0.5646    0.3439
  H101     H    0.5427    0.4805    0.3536
  O102     O    0.6787    0.8726    0.3412
  H103     H    0.6913    0.8196    0.3474
  H104     H    0.7259    0.8937    0.3306
  O105     O    0.0698    0.8821    0.3401
  H106     H    0.0227    0.8562    0.3324
  H107     H    0.0852    0.8562    0.3637
  O108     O    0.5698    0.3821    0.3401
  H109     H    0.5227    0.3562    0.3324
  H110     H    0.5852    0.3562    0.3637
  O111     O    0.3164    0.3164    0.0631
  H112     H    0.3560    0.3560    0.0640
  H113     H    0.3052    0.3052    0.0899
  O114     O    0.3198    0.1321    0.1599
  H115     H    0.3352    0.1062    0.1363
  H116     H    0.2727    0.1062    0.1676
  O117     O    0.1179    0.4302    0.4099
  H118     H    0.1438    0.4773    0.4176
  H119     H    0.1438    0.4148    0.3863
  O120     O    0.8679    0.0698    0.0349
  H121     H    0.8938    0.0852    0.0113
  H122     H    0.8938    0.0227    0.0426
  O123     O    0.0713    0.0675    0.4363
  H124     H    0.0241    0.0887    0.4468
  H125     H    0.0587    0.0551    0.4098
  O126     O    0.8804    0.1855    0.2842
  H127     H    0.8589    0.1624    0.2612
  H128     H    0.8795    0.1446    0.3033
  O129     O    0.2795    0.2832    0.1397
  H130     H    0.2927    0.2305    0.1464
  H131     H    0.3122    0.3146    0.1561
  O132     O    0.3696    0.5645    0.0342
  H133     H    0.3911    0.5876    0.0112
  H134     H    0.3705    0.6054    0.0533
  O135     O    0.1288    0.6250    0.0625
  H136     H    0.0946    0.6563    0.0469
  H137     H    0.0946    0.5937    0.0781
  O138     O    0.8696    0.6855    0.3408
  H139     H    0.8911    0.6624    0.3638
  H140     H    0.8705    0.6446    0.3217
  O141     O    0.9655    0.4655    0.3903
  H142     H    0.9564    0.5189    0.3971
  H143     H    1.0189    0.4564    0.3971
  O144     O    0.6787    0.6825    0.4363
  H145     H    0.7259    0.6613    0.4468
  H146     H    0.6913    0.6949    0.4098
  O147     O    0.6855    0.3804    0.2842
  H148     H    0.6446    0.3795    0.3033
  H149     H    0.6624    0.3589    0.2612
  O150     O    0.4668    0.7795    0.4853
  H151     H    0.4354    0.8122    0.4689
  H152     H    0.5195    0.7927    0.4786
  O153     O    0.0675    0.1787    0.1887
  H154     H    0.0551    0.1913    0.2152
  H155     H    0.0887    0.2259    0.1782
  O156     O    0.3198    0.4302    0.3090
  H157     H    0.2727    0.4148    0.3219
  H158     H    0.3352    0.4773    0.3219
  O159     O    0.4287    0.6274    0.4662
  H160     H    0.4759    0.6063    0.4556
  H161     H    0.4413    0.6804    0.4724
  O162     O    0.5332    0.2205    0.0147
  H163     H    0.4805    0.2073    0.0214
  H164     H    0.5646    0.1878    0.0311
  O165     O    0.6304    0.9315    0.2178
  H166     H    0.6089    0.9776    0.2062
  H167     H    0.6295    0.8935    0.1973
  O168     O    0.4355    0.8185    0.0598
  H169     H    0.3946    0.8565    0.0602
  H170     H    0.4124    0.7724    0.0705
  O171     O    0.7155    0.2155    0.1097
  H172     H    0.7689    0.2064    0.1029
  H173     H    0.7064    0.2689    0.1029
  O174     O    0.5664    0.3739    0.0332
  H175     H    0.5552    0.3203    0.0276
  H176     H    0.6060    0.3720    0.0530
  O177     O    0.1815    0.6855    0.1848
  H178     H    0.2276    0.6624    0.1955
  H179     H    0.1435    0.6446    0.1852
  O180     O    0.6825    0.1787    0.1863
  H181     H    0.6613    0.2259    0.1968
  H182     H    0.6949    0.1913    0.1598
  O183     O    0.0685    0.3804    0.0928
  H184     H    0.1065    0.3795    0.0723
  H185     H    0.0224    0.3589    0.0812
  O186     O    0.9355    0.3185    0.0598
  H187     H    0.9124    0.2724    0.0705
  H188     H    0.8946    0.3565    0.0602
  O189     O    0.0713    0.5675    0.1863
  H190     H    0.0587    0.5551    0.1598
  H191     H    0.0241    0.5887    0.1968
  O192     O    0.9705    0.2795    0.4834
  H193     H    0.9573    0.2927    0.5097
  H194     H    0.9378    0.3122    0.4677
  O195     O    0.5295    0.0295    0.1084
  H196     H    0.5622    0.0622    0.0927
  H197     H    0.5427    0.0427    0.1347
  O198     O    0.8175    0.6274    0.1607
  H199     H    0.8387    0.6063    0.1370
  H200     H    0.8051    0.6804    0.1544
  O201     O    0.3739    0.0664    0.2832
  H202     H    0.3203    0.0552    0.2776
  H203     H    0.3720    0.1060    0.3030
  O204     O    0.1274    0.3175    0.1607
  H205     H    0.1804    0.3051    0.1544
  H206     H    0.1063    0.3387    0.1370
  O207     O    0.8726    0.5713    0.2838
  H208     H    0.8196    0.5587    0.2776
  H209     H    0.8937    0.5241    0.2944
  O210     O    0.9336    0.1261    0.4668
  H211     H    0.8940    0.1280    0.4470
  H212     H    0.9448    0.1797    0.4724
  O213     O    0.3750    0.3750    0.1856
  H214     H    0.3437    0.4063    0.2027
  H215     H    0.4063    0.3437    0.2027
  O216     O    0.2845    0.9695    0.4827
  H217     H    0.2311    0.9558    0.4782
  H218     H    0.2936    0.9558    0.5095
  O219     O    0.1836    0.3739    0.3418
  H220     H    0.1948    0.3203    0.3474
  H221     H    0.1440    0.3720    0.3220
  O222     O    0.8145    0.9315    0.3098
  H223     H    0.8554    0.8935    0.3102
  H224     H    0.8376    0.9776    0.3205
  O225     O    0.3750    0.8712    0.4375
  H226     H    0.4063    0.9054    0.4219
  H227     H    0.3437    0.9054    0.4531
  O228     O    0.8175    0.6226    0.4643
  H229     H    0.8387    0.6437    0.4880
  H230     H    0.8051    0.5696    0.4706
  O231     O    0.6212    0.1250    0.0625
  H232     H    0.6554    0.1563    0.0781
  H233     H    0.6554    0.0937    0.0469
  O234     O    0.6250    0.6250    0.3144
  H235     H    0.6563    0.5937    0.2973
  H236     H    0.5937    0.6563    0.2973
  O237     O    0.1787    0.5675    0.4387
  H238     H    0.1913    0.5551    0.4652
  H239     H    0.2259    0.5887    0.4282
  O240     O    0.5645    0.6815    0.1902
  H241     H    0.5876    0.7276    0.1795
  H242     H    0.6054    0.6435    0.1898
  O243     O    0.7845    0.9695    0.2327
  H244     H    0.7936    0.9558    0.2595
  H245     H    0.7311    0.9558    0.2282
  O246     O    0.1196    0.9355    0.1592
  H247     H    0.1411    0.9124    0.1362
  H248     H    0.1205    0.8946    0.1783
  O249     O    0.1855    0.1815    0.4348
  H250     H    0.1446    0.1435    0.4352
  H251     H    0.1624    0.2276    0.4455
  O252     O    0.3774    0.0713    0.0912
  H253     H    0.3563    0.0241    0.0806
  H254     H    0.4304    0.0587    0.0974
  O255     O    0.8821    0.6802    0.0349
  H256     H    0.8562    0.7273    0.0426
  H257     H    0.8562    0.6648    0.0113
  O258     O    0.7832    0.4705    0.4853
  H259     H    0.7305    0.4573    0.4786
  H260     H    0.8146    0.4378    0.4689
  O261     O    0.7195    0.5345    0.2673
  H262     H    0.7058    0.5436    0.2405
  H263     H    0.7058    0.4811    0.2718
  O264     O    0.9315    0.6196    0.4072
  H265     H    0.9776    0.6411    0.4188
  H266     H    0.8935    0.6205    0.4277
  O267     O    0.0698    0.3679    0.2849
  H268     H    0.0852    0.3938    0.2613
  H269     H    0.0227    0.3938    0.2926
  O270     O    0.2205    0.7205    0.1084
  H271     H    0.2073    0.7073    0.1347
  H272     H    0.1878    0.6878    0.0927
  O273     O    0.6855    0.8804    0.0342
  H274     H    0.6624    0.8589    0.0112
  H275     H    0.6446    0.8795    0.0533
  O276     O    0.8213    0.1226    0.2162
  H277     H    0.7741    0.1437    0.2056
  H278     H    0.8087    0.0696    0.2224
  O279     O    0.9705    0.7832    0.2353
  H280     H    0.9378    0.8146    0.2189
  H281     H    0.9573    0.7305    0.2286
  O282     O    0.6304    0.3185    0.4072
  H283     H    0.6089    0.2724    0.4188
  H284     H    0.6295    0.3565    0.4277
  O285     O    0.4355    0.3185    0.3098
  H286     H    0.3946    0.3565    0.3102
  H287     H    0.4124    0.2724    0.3205
  O288     O    0.3213    0.1226    0.4662
  H289     H    0.3087    0.0696    0.4724
  H290     H    0.2741    0.1437    0.4556
  O291     O    0.4695    0.2845    0.2327
  H292     H    0.4558    0.2311    0.2282
  H293     H    0.4558    0.2936    0.2595
  O294     O    0.1304    0.9315    0.4678
  H295     H    0.1295    0.8935    0.4473
  H296     H    0.1089    0.9776    0.4562
  O297     O    0.0345    0.7195    0.0173
  H298     H   -0.0189    0.7058    0.0218
  H299     H    0.0436    0.7058   -0.0095
  O300     O    0.0675    0.8726    0.0357
  H301     H    0.0887    0.8937    0.0120
  H302     H    0.0551    0.8196    0.0294
  O303     O    0.4655    0.9695    0.3923
  H304     H    0.5189    0.9558    0.3968
  H305     H    0.4564    0.9558    0.3655
  O306     O    0.0295    0.0332    0.3603
  H307     H    0.0622    0.0646    0.3439
  H308     H    0.0427   -0.0195    0.3536
  O309     O    0.9336    0.4336    0.3131
  H310     H    0.9448    0.4448    0.3399
  H311     H    0.8940    0.3940    0.3140
  O312     O    0.4355    0.1304    0.2158
  H313     H    0.3946    0.1295    0.1967
  H314     H    0.4124    0.1089    0.2388
  O315     O    0.9325    0.8213    0.3113
  H316     H    0.9113    0.7741    0.3218
  H317     H    0.9449    0.8087    0.2848
  O318     O    0.2845    0.4695    0.2327
  H319     H    0.2936    0.4558    0.2595
  H320     H    0.2311    0.4558    0.2282
  O321     O    0.6196    0.9355    0.4092
  H322     H    0.6411    0.9124    0.3862
  H323     H    0.6205    0.8946    0.4283
  O324     O    0.3726    0.1825    0.3393
  H325     H    0.3937    0.1613    0.3630
  H326     H    0.3196    0.1949    0.3456
  O327     O    0.5345    0.7195    0.2673
  H328     H    0.4811    0.7058    0.2718
  H329     H    0.5436    0.7058    0.2405
  O330     O    0.3774    0.5675    0.3393
  H331     H    0.4304    0.5551    0.3456
  H332     H    0.3563    0.5887    0.3630
  O333     O    0.3804    0.1815    0.0322
  H334     H    0.3589    0.2276    0.0438
  H335     H    0.3795    0.1435    0.0527
  O336     O    0.8213    0.1274    0.4088
  H337     H    0.8087    0.1804    0.4026
  H338     H    0.7741    0.1063    0.4194
  O339     O    0.7155    0.0345    0.0153
  H340     H    0.7689    0.0436    0.0221
  H341     H    0.7064   -0.0189    0.0221
  O342     O    0.2168    0.5295    0.0147
  H343     H    0.2695    0.5427    0.0214
  H344     H    0.1854    0.5622    0.0311
  O345     O    0.3804    0.6855    0.2842
  H346     H    0.3589    0.6624    0.2612
  H347     H    0.3795    0.6446    0.3033
  O348     O    0.5713    0.1825    0.4387
  H349     H    0.5241    0.1613    0.4282
  H350     H    0.5587    0.1949    0.4652
  O351     O    0.0345    0.2155    0.2653
  H352     H   -0.0189    0.2064    0.2721
  H353     H    0.0436    0.2689    0.2721
  O354     O    0.7795    0.7795    0.1416
  H355     H    0.8122    0.8122    0.1573
  H356     H    0.7927    0.7927    0.1153
  O357     O    0.5685    0.0645    0.1848
  H358     H    0.5224    0.0876    0.1955
  H359     H    0.6065    0.1054    0.1852
  O360     O    0.4287    0.6226    0.1588
  H361     H    0.4413    0.5696    0.1526
  H362     H    0.4759    0.6437    0.1694
  O363     O    0.5713    0.8774    0.0912
  H364     H    0.5241    0.8563    0.0806
  H365     H    0.5587    0.9304    0.0974
  O366     O    0.6274    0.8175    0.1607
  H367     H    0.6063    0.8387    0.1370
  H368     H    0.6804    0.8051    0.1544
  O369     O    0.5664    0.5664    0.4369
  H370     H    0.6060    0.6060    0.4360
  H371     H    0.5552    0.5552    0.4101
  O372     O    0.8804    0.5685    0.0928
  H373     H    0.8795    0.6065    0.0723
  H374     H    0.8589    0.5224    0.0812
  O375     O    0.0345    0.5345    0.1097
  H376     H    0.0436    0.4811    0.1029
  H377     H   -0.0189    0.5436    0.1029
  O378     O    0.8198    0.3198    0.3160
  H379     H    0.8352    0.2727    0.3031
  H380     H    0.7727    0.3352    0.3031
  O381     O    0.6239    0.3164    0.2168
  H382     H    0.5703    0.3052    0.2224
  H383     H    0.6220    0.3560    0.1970
  O384     O    0.1250    0.1250    0.3144
  H385     H    0.0937    0.1563    0.2973
  H386     H    0.1563    0.0937    0.2973
  O387     O    0.1787    0.3774    0.0338
  H388     H    0.2259    0.3563    0.0444
  H389     H    0.1913    0.4304    0.0276
  O390     O    0.3198    0.8198    0.3160
  H391     H    0.3352    0.7727    0.3031
  H392     H    0.2727    0.8352    0.3031
  O393     O    0.1226    0.8213    0.2162
  H394     H    0.1437    0.7741    0.2056
  H395     H    0.0696    0.8087    0.2224
  O396     O    0.7845    0.2805    0.3923
  H397     H    0.7311    0.2942    0.3968
  H398     H    0.7936    0.2942    0.3655
  O399     O    0.6802    0.5698    0.1910
  H400     H    0.7273    0.5852    0.1781
  H401     H    0.6648    0.5227    0.1781
  O402     O    0.5675    0.8726    0.7857
  H403     H    0.5887    0.8937    0.7620
  H404     H    0.5551    0.8196    0.7794
  O405     O    0.6787    0.3726    0.5912
  H406     H    0.6913    0.3196    0.5974
  H407     H    0.7259    0.3937    0.5806
  O408     O    0.3145    0.9315    0.5598
  H409     H    0.3554    0.8935    0.5602
  H410     H    0.3376    0.9776    0.5705
  O411     O    0.9336    0.6261    0.7168
  H412     H    0.9448    0.6797    0.7224
  H413     H    0.8940    0.6280    0.6970
  O414     O    0.9287    0.9325    0.5637
  H415     H    0.9413    0.9449    0.5902
  H416     H    0.9759    0.9113    0.5532
  O417     O    0.3696    0.6815    0.5928
  H418     H    0.3705    0.6435    0.5723
  H419     H    0.3911    0.7276    0.5812
  O420     O    0.3175    0.6226    0.7143
  H421     H    0.3051    0.5696    0.7206
  H422     H    0.3387    0.6437    0.7380
  O423     O    0.8164    0.4336    0.5619
  H424     H    0.8052    0.4448    0.5351
  H425     H    0.8560    0.3940    0.5610
  O426     O    0.8750    0.3750    0.9356
  H427     H    0.8437    0.4063    0.9527
  H428     H    0.9063    0.3437    0.9527
  O429     O    0.3164    0.6261    0.9082
  H430     H    0.3560    0.6280    0.9280
  H431     H    0.3052    0.6797    0.9026
  O432     O    0.4355    0.1196    0.9092
  H433     H    0.4124    0.1411    0.8862
  H434     H    0.3946    0.1205    0.9283
  O435     O    0.2205    0.2168    0.8603
  H436     H    0.2073    0.2695    0.8536
  H437     H    0.1878    0.1854    0.8439
  O438     O    0.6304    0.4355    0.9658
  H439     H    0.6295    0.3946    0.9467
  H440     H    0.6089    0.4124    0.9888
  O441     O    0.6226    0.4325    0.6607
  H442     H    0.5696    0.4449    0.6544
  H443     H    0.6437    0.4113    0.6370
  O444     O    0.1304    0.8145    0.9092
  H445     H    0.1295    0.8554    0.9283
  H446     H    0.1089    0.8376    0.8862
  O447     O    0.2845    0.7805    0.8923
  H448     H    0.2936    0.7942    0.8655
  H449     H    0.2311    0.7942    0.8968
  O450     O    0.4315    0.4355    0.5652
  H451     H    0.4776    0.4124    0.5545
  H452     H    0.3935    0.3946    0.5648
  O453     O    0.2155    0.0345    0.7653
  H454     H    0.2689    0.0436    0.7721
  H455     H    0.2064   -0.0189    0.7721
  O456     O    0.6239    0.8164    0.9668
  H457     H    0.5703    0.8052    0.9724
  H458     H    0.6220    0.8560    0.9470
  O459     O    0.1815    0.8804    0.7822
  H460     H    0.2276    0.8589    0.7938
  H461     H    0.1435    0.8795    0.8027
  O462     O    0.1836    0.0664    0.6881
  H463     H    0.1948    0.0552    0.7149
  H464     H    0.1440    0.1060    0.6890
  O465     O    0.4695    0.4655    0.6423
  H466     H    0.4558    0.5189    0.6468
  H467     H    0.4558    0.4564    0.6155
  O468     O    0.9287    0.1226    0.6588
  H469     H    0.9759    0.1437    0.6694
  H470     H    0.9413    0.0696    0.6526
  O471     O    0.8750    0.8788    0.6875
  H472     H    0.8437    0.8446    0.6719
  H473     H    0.9063    0.8446    0.7031
  O474     O    0.1321    0.4302    0.7151
  H475     H    0.1062    0.4773    0.7074
  H476     H    0.1062    0.4148    0.7387
  O477     O    0.1802    0.8679    0.5901
  H478     H    0.2273    0.8938    0.5824
  H479     H    0.1648    0.8938    0.6137
  O480     O    0.4287    0.9325    0.8137
  H481     H    0.4413    0.9449    0.8402
  H482     H    0.4759    0.9113    0.8032
  O483     O    0.1226    0.3175    0.9643
  H484     H    0.0696    0.3051    0.9706
  H485     H    0.1437    0.3387    0.9880
  O486     O    0.6836    0.0664    0.9381
  H487     H    0.6948    0.0552    0.9649
  H488     H    0.6440    0.1060    0.9390
  O489     O    0.8185    0.8145    0.5652
  H490     H    0.8565    0.8554    0.5648
  H491     H    0.7724    0.8376    0.5545
  O492     O    0.8821    0.0698    0.8401
  H493     H    0.8562    0.0852    0.8637
  H494     H    0.8562    0.0227    0.8324
  O495     O    0.9668    0.9705    0.6397
  H496     H    0.9354    0.9378    0.6561
  H497     H    1.0195    0.9573    0.6464
  O498     O    0.0645    0.6815    0.9402
  H499     H    0.0876    0.7276    0.9295
  H500     H    0.1054    0.6435    0.9398
  O501     O    0.7205    0.7205    0.8584
  H502     H    0.6878    0.6878    0.8427
  H503     H    0.7073    0.7073    0.8847
  O504     O    0.8696    0.1855    0.5908
  H505     H    0.8705    0.1446    0.5717
  H506     H    0.8911    0.1624    0.6138
  O507     O    0.5345    0.5345    0.8597
  H508     H    0.5436    0.4811    0.8529
  H509     H    0.4811    0.5436    0.8529
  O510     O    0.6836    0.8739    0.8418
  H511     H    0.6440    0.8720    0.8220
  H512     H    0.6948    0.8203    0.8474
  O513     O    0.0713    0.8774    0.8412
  H514     H    0.0241    0.8563    0.8306
  H515     H    0.0587    0.9304    0.8474
  O516     O    0.5685    0.3804    0.8428
  H517     H    0.5224    0.3589    0.8312
  H518     H    0.6065    0.3795    0.8223
  O519     O    0.3213    0.3175    0.5637
  H520     H    0.3087    0.3051    0.5902
  H521     H    0.2741    0.3387    0.5532
  O522     O    0.3185    0.1304    0.6572
  H523     H    0.3565    0.1295    0.6777
  H524     H    0.2724    0.1089    0.6688
  O525     O    0.1196    0.4315    0.9072
  H526     H    0.1205    0.3935    0.9277
  H527     H    0.1411    0.4776    0.9188
  O528     O    0.8679    0.0698    0.5349
  H529     H    0.8938    0.0852    0.5113
  H530     H    0.8938    0.0227    0.5426
  O531     O    0.0664    0.0664    0.9369
  H532     H    0.1060    0.1060    0.9360
  H533     H    0.0552    0.0552    0.9101
  O534     O    0.8804    0.1815    0.7822
  H535     H    0.8589    0.2276    0.7938
  H536     H    0.8795    0.1435    0.8027
  O537     O    0.2845    0.2845    0.6403
  H538     H    0.2936    0.2311    0.6471
  H539     H    0.2311    0.2936    0.6471
  O540     O    0.3679    0.5698    0.5349
  H541     H    0.3938    0.5852    0.5113
  H542     H    0.3938    0.5227    0.5426
  O543     O    0.1250    0.6250    0.5606
  H544     H    0.1563    0.6563    0.5777
  H545     H    0.0937    0.5937    0.5777
  O546     O    0.8726    0.6825    0.8393
  H547     H    0.8196    0.6949    0.8456
  H548     H    0.8937    0.6613    0.8630
  O549     O    0.9668    0.4705    0.8897
  H550     H    0.9354    0.4378    0.9061
  H551     H    1.0195    0.4573    0.8964
  O552     O    0.6855    0.6815    0.9348
  H553     H    0.6624    0.7276    0.9455
  H554     H    0.6446    0.6435    0.9352
  O555     O    0.6787    0.3774    0.7838
  H556     H    0.6913    0.4304    0.7776
  H557     H    0.7259    0.3563    0.7944
  O558     O    0.4705    0.7795    0.9834
  H559     H    0.4378    0.8122    0.9677
  H560     H    0.4573    0.7927    1.0097
  O561     O    0.0675    0.1787    0.6887
  H562     H    0.0887    0.2259    0.6782
  H563     H    0.0551    0.1913    0.7152
  O564     O    0.3164    0.4336    0.8119
  H565     H    0.3560    0.3940    0.8110
  H566     H    0.3052    0.4448    0.7851
  O567     O    0.4287    0.6274    0.9662
  H568     H    0.4413    0.6804    0.9724
  H569     H    0.4759    0.6063    0.9556
  O570     O    0.5332    0.2205    0.5147
  H571     H    0.5646    0.1878    0.5311
  H572     H    0.4805    0.2073    0.5214
  O573     O    0.6274    0.9287    0.7162
  H574     H    0.6804    0.9413    0.7224
  H575     H    0.6063    0.9759    0.7056
  O576     O    0.4287    0.8175    0.5613
  H577     H    0.4413    0.8051    0.5348
  H578     H    0.4759    0.8387    0.5718
  O579     O    0.7155    0.2195    0.6077
  H580     H    0.7689    0.2058    0.6032
  H581     H    0.7064    0.2058    0.6345
  O582     O    0.5664    0.3739    0.5332
  H583     H    0.6060    0.3720    0.5530
  H584     H    0.5552    0.3203    0.5276
  O585     O    0.1787    0.6825    0.6863
  H586     H    0.2259    0.6613    0.6968
  H587     H    0.1913    0.6949    0.6598
  O588     O    0.6802    0.1802    0.6840
  H589     H    0.6648    0.2273    0.6969
  H590     H    0.7273    0.1648    0.6969
  O591     O    0.0664    0.3761    0.5918
  H592     H    0.1060    0.3780    0.5720
  H593     H    0.0552    0.4297    0.5974
  O594     O    0.9302    0.3198    0.5590
  H595     H    0.9148    0.2727    0.5719
  H596     H    0.9773    0.3352    0.5719
  O597     O    0.0685    0.5645    0.6848
  H598     H    0.1065    0.6054    0.6852
  H599     H    0.0224    0.5876    0.6955
  O600     O    0.9695    0.2845    0.9827
  H601     H    0.9558    0.2311    0.9782
  H602     H    0.9558    0.2936    1.0095
  O603     O    0.5332    0.0295    0.6103
  H604     H    0.5646    0.0622    0.5939
  H605     H    0.4805    0.0427    0.6036
  O606     O    0.8175    0.6274    0.6607
  H607     H    0.8387    0.6063    0.6370
  H608     H    0.8051    0.6804    0.6544
  O609     O    0.3679    0.0698    0.7849
  H610     H    0.3938    0.0852    0.7613
  H611     H    0.3938    0.0227    0.7926
  O612     O    0.1304    0.3145    0.6592
  H613     H    0.1089    0.3376    0.6362
  H614     H    0.1295    0.3554    0.6783
  O615     O    0.8696    0.5645    0.7842
  H616     H    0.8911    0.5876    0.7612
  H617     H    0.8705    0.6054    0.8033
  O618     O    0.9315    0.1304    0.9678
  H619     H    0.9776    0.1089    0.9562
  H620     H    0.8935    0.1295    0.9473
  O621     O    0.3750    0.3750    0.6894
  H622     H    0.3437    0.3437    0.6723
  H623     H    0.4063    0.4063    0.6723
  O624     O    0.2795    0.9668    0.9853
  H625     H    0.2927    1.0195    0.9786
  H626     H    0.3122    0.9354    0.9689
  O627     O    0.1802    0.3679    0.8401
  H628     H    0.2273    0.3938    0.8324
  H629     H    0.1648    0.3938    0.8637
  O630     O    0.8213    0.9325    0.8113
  H631     H    0.7741    0.9113    0.8218
  H632     H    0.8087    0.9449    0.7848
  O633     O    0.3750    0.8750    0.9394
  H634     H    0.4063    0.9063    0.9223
  H635     H    0.3437    0.8437    0.9223
  O636     O    0.8185    0.6196    0.9678
  H637     H    0.7724    0.6411    0.9562
  H638     H    0.8565    0.6205    0.9473
  O639     O    0.6212    0.1250    0.5625
  H640     H    0.6554    0.1563    0.5781
  H641     H    0.6554    0.0937    0.5469
  O642     O    0.6250    0.6288    0.8125
  H643     H    0.6563    0.5946    0.7969
  H644     H    0.5937    0.5946    0.8281
  O645     O    0.1787    0.5675    0.9387
  H646     H    0.2259    0.5887    0.9282
  H647     H    0.1913    0.5551    0.9652
  O648     O    0.5685    0.6855    0.6902
  H649     H    0.5224    0.6624    0.6795
  H650     H    0.6065    0.6446    0.6898
  O651     O    0.7795    0.9668    0.7353
  H652     H    0.7927    1.0195    0.7286
  H653     H    0.8122    0.9354    0.7189
  O654     O    0.1196    0.9315    0.6572
  H655     H    0.1205    0.8935    0.6777
  H656     H    0.1411    0.9776    0.6688
  O657     O    0.1825    0.1787    0.9363
  H658     H    0.1949    0.1913    0.9098
  H659     H    0.1613    0.2259    0.9468
  O660     O    0.3804    0.0645    0.5908
  H661     H    0.3795    0.1054    0.5717
  H662     H    0.3589    0.0876    0.6138
  O663     O    0.8774    0.6787    0.5338
  H664     H    0.8563    0.7259    0.5444
  H665     H    0.9304    0.6913    0.5276
  O666     O    0.7845    0.4655    0.9847
  H667     H    0.7936    0.5189    0.9779
  H668     H    0.7311    0.4564    0.9779
  O669     O    0.7155    0.5305    0.7673
  H670     H    0.7064    0.5442    0.7405
  H671     H    0.7689    0.5442    0.7718
  O672     O    0.9287    0.6226    0.9088
  H673     H    0.9413    0.5696    0.9026
  H674     H    0.9759    0.6437    0.9194
  O675     O    0.0685    0.3696    0.7822
  H676     H    0.1065    0.3705    0.8027
  H677     H    0.0224    0.3911    0.7938
  O678     O    0.2155    0.7155    0.6097
  H679     H    0.2689    0.7064    0.6029
  H680     H    0.2064    0.7689    0.6029
  O681     O    0.6836    0.8761    0.5332
  H682     H    0.6948    0.9297    0.5276
  H683     H    0.6440    0.8780    0.5530
  O684     O    0.8145    0.1196    0.7158
  H685     H    0.8554    0.1205    0.6967
  H686     H    0.8376    0.1411    0.7388
  O687     O    0.9655    0.7805    0.7327
  H688     H    1.0189    0.7942    0.7282
  H689     H    0.9564    0.7942    0.7595
  O690     O    0.6321    0.3198    0.9099
  H691     H    0.6062    0.2727    0.9176
  H692     H    0.6062    0.3352    0.8863
  O693     O    0.4325    0.3213    0.8113
  H694     H    0.4113    0.2741    0.8218
  H695     H    0.4449    0.3087    0.7848
  O696     O    0.3198    0.1179    0.9651
  H697     H    0.3352    0.1438    0.9887
  H698     H    0.2727    0.1438    0.9574
  O699     O    0.4668    0.2795    0.7353
  H700     H    0.5195    0.2927    0.7286
  H701     H    0.4354    0.3122    0.7189
  O702     O    0.1274    0.9287    0.9662
  H703     H    0.1804    0.9413    0.9724
  H704     H    0.1063    0.9759    0.9556
  O705     O    0.0295    0.7168    0.5147
  H706     H    0.0427    0.7695    0.5214
  H707     H    0.0622    0.6854    0.5311
  O708     O    0.0645    0.8696    0.5342
  H709     H    0.1054    0.8705    0.5533
  H710     H    0.0876    0.8911    0.5112
  O711     O    0.4655    0.9655    0.8903
  H712     H    0.4564    1.0189    0.8971
  H713     H    0.5189    0.9564    0.8971
  O714     O    0.0332    0.0295    0.8603
  H715     H    0.0646    0.0622    0.8439
  H716     H   -0.0195    0.0427    0.8536
  O717     O    0.9325    0.4287    0.8137
  H718     H    0.9113    0.4759    0.8032
  H719     H    0.9449    0.4413    0.8402
  O720     O    0.4287    0.1274    0.7162
  H721     H    0.4413    0.1804    0.7224
  H722     H    0.4759    0.1063    0.7056
  O723     O    0.9355    0.8185    0.8098
  H724     H    0.9124    0.7724    0.8205
  H725     H    0.8946    0.8565    0.8102
  O726     O    0.2832    0.4705    0.7353
  H727     H    0.3146    0.4378    0.7189
  H728     H    0.2305    0.4573    0.7286
  O729     O    0.6179    0.9302    0.9099
  H730     H    0.6438    0.9773    0.9176
  H731     H    0.6438    0.9148    0.8863
  O732     O    0.3739    0.1836    0.8418
  H733     H    0.3720    0.1440    0.8220
  H734     H    0.3203    0.1948    0.8474
  O735     O    0.5295    0.7205    0.7666
  H736     H    0.5622    0.6878    0.7823
  H737     H    0.5427    0.7073    0.7403
  O738     O    0.3821    0.5698    0.8401
  H739     H    0.3562    0.5227    0.8324
  H740     H    0.3562    0.5852    0.8637
  O741     O    0.3821    0.1802    0.5349
  H742     H    0.3562    0.1648    0.5113
  H743     H    0.3562    0.2273    0.5426
  O744     O    0.8213    0.1274    0.9088
  H745     H    0.8087    0.1804    0.9026
  H746     H    0.7741    0.1063    0.9194
  O747     O    0.7155    0.0305    0.5173
  H748     H    0.7064    0.0442    0.4905
  H749     H    0.7689    0.0442    0.5218
  O750     O    0.2168    0.5295    0.5147
  H751     H    0.1854    0.5622    0.5311
  H752     H    0.2695    0.5427    0.5214
  O753     O    0.3761    0.6836    0.7832
  H754     H    0.4297    0.6948    0.7776
  H755     H    0.3780    0.6440    0.8030
  O756     O    0.5713    0.1825    0.9387
  H757     H    0.5241    0.1613    0.9282
  H758     H    0.5587    0.1949    0.9652
  O759     O    0.0345    0.2155    0.7653
  H760     H   -0.0189    0.2064    0.7721
  H761     H    0.0436    0.2689    0.7721
  O762     O    0.7845    0.7805    0.6423
  H763     H    0.7311    0.7942    0.6468
  H764     H    0.7936    0.7942    0.6155
  O765     O    0.5664    0.0664    0.6869
  H766     H    0.5552    0.0552    0.6601
  H767     H    0.6060    0.1060    0.6860
  O768     O    0.4355    0.6196    0.6592
  H769     H    0.3946    0.6205    0.6783
  H770     H    0.4124    0.6411    0.6362
  O771     O    0.5675    0.8774    0.5893
  H772     H    0.5551    0.9304    0.5956
  H773     H    0.5887    0.8563    0.6130
  O774     O    0.6304    0.8185    0.6572
  H775     H    0.6089    0.7724    0.6688
  H776     H    0.6295    0.8565    0.6777
  O777     O    0.5675    0.5713    0.9363
  H778     H    0.5551    0.5587    0.9098
  H779     H    0.5887    0.5241    0.9468
  O780     O    0.8804    0.5685    0.5928
  H781     H    0.8795    0.6065    0.5723
  H782     H    0.8589    0.5224    0.5812
  O783     O    0.0345    0.5305    0.6077
  H784     H    0.0436    0.5442    0.6345
  H785     H   -0.0189    0.5442    0.6032
  O786     O    0.8164    0.3164    0.8131
  H787     H    0.8052    0.3052    0.8399
  H788     H    0.8560    0.3560    0.8140
  O789     O    0.6196    0.3145    0.7158
  H790     H    0.6205    0.3554    0.6967
  H791     H    0.6411    0.3376    0.7388
  O792     O    0.1250    0.1250    0.8144
  H793     H    0.1563    0.0937    0.7973
  H794     H    0.0937    0.1563    0.7973
  O795     O    0.1825    0.3774    0.5357
  H796     H    0.1613    0.3563    0.5120
  H797     H    0.1949    0.4304    0.5294
  O798     O    0.3145    0.8185    0.8152
  H799     H    0.3554    0.8565    0.8148
  H800     H    0.3376    0.7724    0.8045
  O801     O    0.1179    0.8198    0.7151
  H802     H    0.1438    0.8352    0.7387
  H803     H    0.1438    0.7727    0.7074
  O804     O    0.7832    0.2795    0.8897
  H805     H    0.7305    0.2927    0.8964
  H806     H    0.8146    0.3122    0.9061
  O807     O    0.6802    0.5698    0.6910
  H808     H    0.6648    0.5227    0.6781
  H809     H    0.7273    0.5852    0.6781
 Cl810    Cl    0.6820    0.3708    0.0910
 Na811    Na    0.5680    0.8708    0.2840

